FLP.pdb
  rDOCK(R)          3D
libRbt.so/2013.1/901 2013/11/27
 19 20  0  0  0  0  0  0  0  0999 V2000
   29.3150   20.3553   18.8343 C   0  0  0  0  0  0
   29.0261   20.9833   17.6027 C   0  0  0  0  0  0
   27.9429   21.8506   17.5023 C   0  0  0  0  0  0
   27.1535   22.0879   18.6289 C   0  0  0  0  0  0
   27.4485   21.4587   19.8535 C   0  0  0  0  0  0
   28.5320   20.5917   19.9507 C   0  0  0  0  0  0
   27.5976   22.5069   16.1826 C   0  0  0  0  0  0
   28.3875   23.5552   15.6514 C   0  0  0  0  0  0
   28.0442   24.1370   14.3929 C   0  0  0  0  0  0
   26.8956   23.6470   13.6808 C   0  0  0  0  0  0
   26.1357   22.6127   14.2136 C   0  0  0  0  0  0
   26.4685   22.0454   15.4477 C   0  0  0  0  0  0
   26.4311   24.2966   12.3935 C   0  0  0  0  0  0
   27.6258   24.6785   11.5227 C   0  0  0  0  0  0
   25.6219   25.5407   12.7583 C   0  0  0  0  0  0
   24.4531   25.6128   12.4691 O   0  0  0  0  0  0
   26.1902   26.5529   13.3586 O   0  0  0  0  0  0
   25.6866   21.0519   15.9480 F   0  0  0  0  0  0
   25.6848   27.3104   13.5796 H   0  0  0  0  0  0
  1  2  2  0  0  0
  2  3  1  0  0  0
  3  7  1  0  0  0
  4  3  2  0  0  0
  5  4  1  0  0  0
  6  5  2  0  0  0
  6  1  1  0  0  0
  7  8  2  0  0  0
  7 12  1  0  0  0
  8  9  1  0  0  0
  9 10  2  0  0  0
 10 13  1  0  0  0
 11 10  1  0  0  0
 12 11  2  0  0  0
 13 14  1  0  0  0
 15 17  1  0  0  0
 15 13  1  0  0  0
 16 15  2  0  0  0
 17 19  1  0  0  0
 18 12  1  0  0  0
M  END
>  <CHROM.0>
1.34267210,15.68736064,-77.14660662,99.65754016,-51.29070701,158.02618698
-60.37810297

>  <CHROM.1>
-73.23543567,40.19169253,-179.87258523,-116.83564533,27.08611530,23.03358688
15.48923406,-1.29804437,-0.11612539,-0.94130729

>  <FORMUL>
      FLP    C15 H13 F1 O2

>  <HET>
 FLP  A 701      18

>  <HETNAM>
     FLP FLURBIPROFEN

>  <Name>
FLP.pdb

>  <RI>
0

>  <Rbt.Current_Directory>
/home/malgorzata/Desktop/rDOCK_IFD/Wyniki/4c_COX2/IFD

>  <Rbt.Executable>
rbdock ($Id: //depot/dev/client3/rdock/2013.1/src/exe/rbdock.cxx#4 $)

>  <Rbt.Library>
libRbt.so (2013.1, Build901 2013/11/27)

>  <Rbt.Parameter_File>
/home/malgorzata/Desktop/rDock_2013.1_src/data/scripts/hard_docking.prm

>  <Rbt.Receptor>
cavity.prm

>  <SCORE>
-11.0541

>  <SCORE.INTER>
-10.8574

>  <SCORE.INTER.CONST>
1

>  <SCORE.INTER.POLAR>
0

>  <SCORE.INTER.REPUL>
0

>  <SCORE.INTER.ROT>
3

>  <SCORE.INTER.VDW>
-19.2574

>  <SCORE.INTER.norm>
-0.603187

>  <SCORE.INTRA>
-1.24333

>  <SCORE.INTRA.DIHEDRAL>
0.518034

>  <SCORE.INTRA.DIHEDRAL.0>
5.47211

>  <SCORE.INTRA.POLAR>
0

>  <SCORE.INTRA.POLAR.0>
0

>  <SCORE.INTRA.REPUL>
0

>  <SCORE.INTRA.REPUL.0>
0

>  <SCORE.INTRA.VDW>
-1.50234

>  <SCORE.INTRA.VDW.0>
0.722234

>  <SCORE.INTRA.norm>
-0.0690736

>  <SCORE.RESTR>
0

>  <SCORE.RESTR.CAVITY>
0

>  <SCORE.RESTR.norm>
0

>  <SCORE.SYSTEM>
1.04655

>  <SCORE.SYSTEM.CONST>
0

>  <SCORE.SYSTEM.DIHEDRAL>
3.1585

>  <SCORE.SYSTEM.REPUL>
0.00640716

>  <SCORE.SYSTEM.VDW>
-0.56473

>  <SCORE.SYSTEM.norm>
0.0581419

>  <SCORE.heavy>
18

>  <SCORE.norm>
-0.614119

$$$$
FLP.pdb
  rDOCK(R)          3D
libRbt.so/2013.1/901 2013/11/27
 19 20  0  0  0  0  0  0  0  0999 V2000
   26.1956   26.9891   12.7267 C   0  0  0  0  0  0
   26.3217   26.2941   13.9497 C   0  0  0  0  0  0
   26.8080   24.9907   13.9612 C   0  0  0  0  0  0
   27.1662   24.3865   12.7548 C   0  0  0  0  0  0
   27.0385   25.0863   11.5397 C   0  0  0  0  0  0
   26.5516   26.3894   11.5313 C   0  0  0  0  0  0
   26.9186   24.2181   15.2583 C   0  0  0  0  0  0
   25.9826   24.3976   16.3056 C   0  0  0  0  0  0
   26.1054   23.6359   17.5077 C   0  0  0  0  0  0
   27.1834   22.6937   17.6369 C   0  0  0  0  0  0
   28.0888   22.5252   16.5963 C   0  0  0  0  0  0
   27.9719   23.2736   15.4208 C   0  0  0  0  0  0
   27.4166   21.9363   18.9280 C   0  0  0  0  0  0
   28.9113   21.7600   19.1853 C   0  0  0  0  0  0
   26.7355   20.5738   18.8051 C   0  0  0  0  0  0
   27.3109   19.6507   18.2837 O   0  0  0  0  0  0
   25.5134   20.3986   19.2334 O   0  0  0  0  0  0
   28.8913   23.0985   14.4346 F   0  0  0  0  0  0
   25.0424   21.1147   19.6121 H   0  0  0  0  0  0
  1  2  2  0  0  0
  2  3  1  0  0  0
  3  7  1  0  0  0
  4  3  2  0  0  0
  5  4  1  0  0  0
  6  5  2  0  0  0
  6  1  1  0  0  0
  7  8  2  0  0  0
  7 12  1  0  0  0
  8  9  1  0  0  0
  9 10  2  0  0  0
 10 13  1  0  0  0
 11 10  1  0  0  0
 12 11  2  0  0  0
 13 14  1  0  0  0
 15 17  1  0  0  0
 15 13  1  0  0  0
 16 15  2  0  0  0
 17 19  1  0  0  0
 18 12  1  0  0  0
M  END
>  <CHROM.0>
4.44092225,-179.46319627,64.56854857,-38.46906155,59.06241354,156.04208237
-60.37810297

>  <CHROM.1>
33.83094189,-143.39823539,0.65832935,85.24579140,27.09632118,23.35095541
15.85571244,1.62129784,0.62702286,-0.94251241

>  <FORMUL>
      FLP    C15 H13 F1 O2

>  <HET>
 FLP  A 701      18

>  <HETNAM>
     FLP FLURBIPROFEN

>  <Name>
FLP.pdb

>  <RI>
0

>  <Rbt.Current_Directory>
/home/malgorzata/Desktop/rDOCK_IFD/Wyniki/4c_COX2/IFD

>  <Rbt.Executable>
rbdock ($Id: //depot/dev/client3/rdock/2013.1/src/exe/rbdock.cxx#4 $)

>  <Rbt.Library>
libRbt.so (2013.1, Build901 2013/11/27)

>  <Rbt.Parameter_File>
/home/malgorzata/Desktop/rDock_2013.1_src/data/scripts/hard_docking.prm

>  <Rbt.Receptor>
cavity.prm

>  <SCORE>
-15.5904

>  <SCORE.INTER>
-13.7774

>  <SCORE.INTER.CONST>
1

>  <SCORE.INTER.POLAR>
-0.979796

>  <SCORE.INTER.REPUL>
0

>  <SCORE.INTER.ROT>
3

>  <SCORE.INTER.VDW>
-18.8461

>  <SCORE.INTER.norm>
-0.765411

>  <SCORE.INTRA>
0.629474

>  <SCORE.INTRA.DIHEDRAL>
-1.47001

>  <SCORE.INTRA.DIHEDRAL.0>
5.47211

>  <SCORE.INTRA.POLAR>
0

>  <SCORE.INTRA.POLAR.0>
0

>  <SCORE.INTRA.REPUL>
0

>  <SCORE.INTRA.REPUL.0>
0

>  <SCORE.INTRA.VDW>
1.36448

>  <SCORE.INTRA.VDW.0>
0.722234

>  <SCORE.INTRA.norm>
0.0349708

>  <SCORE.RESTR>
0

>  <SCORE.RESTR.CAVITY>
0

>  <SCORE.RESTR.norm>
0

>  <SCORE.SYSTEM>
-2.44246

>  <SCORE.SYSTEM.CONST>
0

>  <SCORE.SYSTEM.DIHEDRAL>
1.32705

>  <SCORE.SYSTEM.POLAR>
-0.31396

>  <SCORE.SYSTEM.VDW>
-2.03853

>  <SCORE.SYSTEM.norm>
-0.135692

>  <SCORE.heavy>
18

>  <SCORE.norm>
-0.866133

$$$$
FLP.pdb
  rDOCK(R)          3D
libRbt.so/2013.1/901 2013/11/27
 19 20  0  0  0  0  0  0  0  0999 V2000
   27.0178   23.5173   16.9386 C   0  0  0  0  0  0
   25.6176   23.3387   16.9867 C   0  0  0  0  0  0
   25.0866   22.0984   17.3259 C   0  0  0  0  0  0
   25.9528   21.0426   17.6154 C   0  0  0  0  0  0
   27.3476   21.2287   17.5662 C   0  0  0  0  0  0
   27.8756   22.4700   17.2264 C   0  0  0  0  0  0
   23.5890   21.8789   17.3500 C   0  0  0  0  0  0
   23.0035   20.8782   18.1629 C   0  0  0  0  0  0
   21.5847   20.7131   18.1769 C   0  0  0  0  0  0
   20.7684   21.5700   17.3609 C   0  0  0  0  0  0
   21.3593   22.5515   16.5745 C   0  0  0  0  0  0
   22.7485   22.7109   16.5568 C   0  0  0  0  0  0
   19.2699   21.3699   17.2629 C   0  0  0  0  0  0
   18.5694   21.9450   18.4917 C   0  0  0  0  0  0
   19.0006   19.8696   17.1530 C   0  0  0  0  0  0
   19.7592   19.1583   16.5416 O   0  0  0  0  0  0
   17.9325   19.3430   17.6913 O   0  0  0  0  0  0
   23.2915   23.6661   15.7560 F   0  0  0  0  0  0
   17.7908   18.4180   17.6425 H   0  0  0  0  0  0
  1  2  2  0  0  0
  2  3  1  0  0  0
  3  7  1  0  0  0
  4  3  2  0  0  0
  5  4  1  0  0  0
  6  5  2  0  0  0
  6  1  1  0  0  0
  7  8  2  0  0  0
  7 12  1  0  0  0
  8  9  1  0  0  0
  9 10  2  0  0  0
 10 13  1  0  0  0
 11 10  1  0  0  0
 12 11  2  0  0  0
 13 14  1  0  0  0
 15 17  1  0  0  0
 15 13  1  0  0  0
 16 15  2  0  0  0
 17 19  1  0  0  0
 18 12  1  0  0  0
M  END
>  <CHROM.0>
3.06309873,-177.21885172,63.39985780,99.69345278,55.99678206,155.49048767
-60.37810297

>  <CHROM.1>
-154.39724568,78.84439786,-177.99644994,-35.68739719,22.63818297,21.61174852
17.23678653,0.27501240,-0.04610279,-0.32189843

>  <FORMUL>
      FLP    C15 H13 F1 O2

>  <HET>
 FLP  A 701      18

>  <HETNAM>
     FLP FLURBIPROFEN

>  <Name>
FLP.pdb

>  <RI>
0

>  <Rbt.Current_Directory>
/home/malgorzata/Desktop/rDOCK_IFD/Wyniki/4c_COX2/IFD

>  <Rbt.Executable>
rbdock ($Id: //depot/dev/client3/rdock/2013.1/src/exe/rbdock.cxx#4 $)

>  <Rbt.Library>
libRbt.so (2013.1, Build901 2013/11/27)

>  <Rbt.Parameter_File>
/home/malgorzata/Desktop/rDock_2013.1_src/data/scripts/hard_docking.prm

>  <Rbt.Receptor>
cavity.prm

>  <SCORE>
-17.5406

>  <SCORE.INTER>
-14.2782

>  <SCORE.INTER.CONST>
1

>  <SCORE.INTER.POLAR>
-0.824621

>  <SCORE.INTER.REPUL>
0

>  <SCORE.INTER.ROT>
3

>  <SCORE.INTER.VDW>
-19.8745

>  <SCORE.INTER.norm>
-0.793234

>  <SCORE.INTRA>
-0.70487

>  <SCORE.INTRA.DIHEDRAL>
-1.96923

>  <SCORE.INTRA.DIHEDRAL.0>
5.47211

>  <SCORE.INTRA.POLAR>
0

>  <SCORE.INTRA.POLAR.0>
0

>  <SCORE.INTRA.REPUL>
0

>  <SCORE.INTRA.REPUL.0>
0

>  <SCORE.INTRA.VDW>
0.279744

>  <SCORE.INTRA.VDW.0>
0.722234

>  <SCORE.INTRA.norm>
-0.0391595

>  <SCORE.RESTR>
0

>  <SCORE.RESTR.CAVITY>
0

>  <SCORE.RESTR.norm>
0

>  <SCORE.SYSTEM>
-2.55748

>  <SCORE.SYSTEM.CONST>
0

>  <SCORE.SYSTEM.DIHEDRAL>
1.39069

>  <SCORE.SYSTEM.POLAR>
-0.341461

>  <SCORE.SYSTEM.REPUL>
0.00159867

>  <SCORE.SYSTEM.VDW>
-2.09985

>  <SCORE.SYSTEM.norm>
-0.142082

>  <SCORE.heavy>
18

>  <SCORE.norm>
-0.974476

$$$$
FLP.pdb
  rDOCK(R)          3D
libRbt.so/2013.1/901 2013/11/27
 19 20  0  0  0  0  0  0  0  0999 V2000
   29.3764   21.5040   19.6257 C   0  0  0  0  0  0
   28.9522   22.2883   18.5304 C   0  0  0  0  0  0
   27.6883   22.0917   17.9833 C   0  0  0  0  0  0
   26.8536   21.1154   18.5299 C   0  0  0  0  0  0
   27.2833   20.3382   19.6226 C   0  0  0  0  0  0
   28.5478   20.5368   20.1673 C   0  0  0  0  0  0
   27.2290   22.8994   16.7881 C   0  0  0  0  0  0
   26.0427   23.6713   16.8317 C   0  0  0  0  0  0
   25.6508   24.4382   15.6922 C   0  0  0  0  0  0
   26.4709   24.4144   14.5118 C   0  0  0  0  0  0
   27.6356   23.6568   14.4889 C   0  0  0  0  0  0
   28.0179   22.9023   15.6026 C   0  0  0  0  0  0
   26.0476   25.1283   13.2445 C   0  0  0  0  0  0
   26.0919   26.6420   13.4400 C   0  0  0  0  0  0
   24.6275   24.6793   12.9021 C   0  0  0  0  0  0
   23.7735   25.4955   12.6579 O   0  0  0  0  0  0
   24.3118   23.4112   12.8997 O   0  0  0  0  0  0
   29.1512   22.1544   15.5336 F   0  0  0  0  0  0
   24.9429   22.7708   13.1636 H   0  0  0  0  0  0
  1  2  2  0  0  0
  2  3  1  0  0  0
  3  7  1  0  0  0
  4  3  2  0  0  0
  5  4  1  0  0  0
  6  5  2  0  0  0
  6  1  1  0  0  0
  7  8  2  0  0  0
  7 12  1  0  0  0
  8  9  1  0  0  0
  9 10  2  0  0  0
 10 13  1  0  0  0
 11 10  1  0  0  0
 12 11  2  0  0  0
 13 14  1  0  0  0
 15 17  1  0  0  0
 15 13  1  0  0  0
 16 15  2  0  0  0
 17 19  1  0  0  0
 18 12  1  0  0  0
M  END
>  <CHROM.0>
-20.44655400,20.92525073,-176.95121006,-38.61677011,56.77766006,161.35277662
-60.37810297

>  <CHROM.1>
-123.58918447,68.89758341,4.01507689,130.22342666,26.84866601,23.21516910
15.94234763,-1.13039148,-0.03926513,-0.97625732

>  <FORMUL>
      FLP    C15 H13 F1 O2

>  <HET>
 FLP  A 701      18

>  <HETNAM>
     FLP FLURBIPROFEN

>  <Name>
FLP.pdb

>  <RI>
0

>  <Rbt.Current_Directory>
/home/malgorzata/Desktop/rDOCK_IFD/Wyniki/4c_COX2/IFD

>  <Rbt.Executable>
rbdock ($Id: //depot/dev/client3/rdock/2013.1/src/exe/rbdock.cxx#4 $)

>  <Rbt.Library>
libRbt.so (2013.1, Build901 2013/11/27)

>  <Rbt.Parameter_File>
/home/malgorzata/Desktop/rDock_2013.1_src/data/scripts/hard_docking.prm

>  <Rbt.Receptor>
cavity.prm

>  <SCORE>
-12.949

>  <SCORE.INTER>
-10.9443

>  <SCORE.INTER.CONST>
1

>  <SCORE.INTER.POLAR>
-0.591018

>  <SCORE.INTER.REPUL>
0

>  <SCORE.INTER.ROT>
3

>  <SCORE.INTER.VDW>
-17.3348

>  <SCORE.INTER.norm>
-0.608015

>  <SCORE.INTRA>
-0.831981

>  <SCORE.INTRA.DIHEDRAL>
-0.370463

>  <SCORE.INTRA.DIHEDRAL.0>
5.47211

>  <SCORE.INTRA.POLAR>
0

>  <SCORE.INTRA.POLAR.0>
0

>  <SCORE.INTRA.REPUL>
0

>  <SCORE.INTRA.REPUL.0>
0

>  <SCORE.INTRA.VDW>
-0.64675

>  <SCORE.INTRA.VDW.0>
0.722234

>  <SCORE.INTRA.norm>
-0.0462212

>  <SCORE.RESTR>
0

>  <SCORE.RESTR.CAVITY>
0

>  <SCORE.RESTR.norm>
0

>  <SCORE.SYSTEM>
-1.17277

>  <SCORE.SYSTEM.CONST>
0

>  <SCORE.SYSTEM.DIHEDRAL>
2.20597

>  <SCORE.SYSTEM.POLAR>
-0.334562

>  <SCORE.SYSTEM.VDW>
-1.13825

>  <SCORE.SYSTEM.norm>
-0.0651541

>  <SCORE.heavy>
18

>  <SCORE.norm>
-0.71939

$$$$
FLP.pdb
  rDOCK(R)          3D
libRbt.so/2013.1/901 2013/11/27
 19 20  0  0  0  0  0  0  0  0999 V2000
   26.3046   26.1962   13.2839 C   0  0  0  0  0  0
   26.8483   25.4544   14.3557 C   0  0  0  0  0  0
   26.2395   24.2709   14.7609 C   0  0  0  0  0  0
   25.0927   23.8325   14.0966 C   0  0  0  0  0  0
   24.5571   24.5772   13.0283 C   0  0  0  0  0  0
   25.1679   25.7604   12.6256 C   0  0  0  0  0  0
   26.7882   23.4797   15.9291 C   0  0  0  0  0  0
   27.8609   22.5701   15.7647 C   0  0  0  0  0  0
   28.3674   21.8561   16.8934 C   0  0  0  0  0  0
   27.7771   22.0728   18.1861 C   0  0  0  0  0  0
   26.7297   22.9745   18.3305 C   0  0  0  0  0  0
   26.2303   23.6707   17.2253 C   0  0  0  0  0  0
   28.2096   21.2674   19.3941 C   0  0  0  0  0  0
   29.7289   21.2952   19.5427 C   0  0  0  0  0  0
   27.7219   19.8317   19.2029 C   0  0  0  0  0  0
   27.3297   19.4608   18.1242 O   0  0  0  0  0  0
   27.6937   18.9979   20.2088 O   0  0  0  0  0  0
   25.1884   24.5263   17.4019 F   0  0  0  0  0  0
   27.3503   18.1340   20.0918 H   0  0  0  0  0  0
  1  2  2  0  0  0
  2  3  1  0  0  0
  3  7  1  0  0  0
  4  3  2  0  0  0
  5  4  1  0  0  0
  6  5  2  0  0  0
  6  1  1  0  0  0
  7  8  2  0  0  0
  7 12  1  0  0  0
  8  9  1  0  0  0
  9 10  2  0  0  0
 10 13  1  0  0  0
 11 10  1  0  0  0
 12 11  2  0  0  0
 13 14  1  0  0  0
 15 17  1  0  0  0
 15 13  1  0  0  0
 16 15  2  0  0  0
 17 19  1  0  0  0
 18 12  1  0  0  0
M  END
>  <CHROM.0>
4.12328278,18.83995140,64.95052975,107.28025704,57.67494479,176.03153578
-60.37810297

>  <CHROM.1>
-83.36393075,51.18138077,176.73760598,13.63742716,26.87777093,22.81653894
16.68772276,-2.22646197,1.01741655,2.87688511

>  <FORMUL>
      FLP    C15 H13 F1 O2

>  <HET>
 FLP  A 701      18

>  <HETNAM>
     FLP FLURBIPROFEN

>  <Name>
FLP.pdb

>  <RI>
0

>  <Rbt.Current_Directory>
/home/malgorzata/Desktop/rDOCK_IFD/Wyniki/4c_COX2/IFD

>  <Rbt.Executable>
rbdock ($Id: //depot/dev/client3/rdock/2013.1/src/exe/rbdock.cxx#4 $)

>  <Rbt.Library>
libRbt.so (2013.1, Build901 2013/11/27)

>  <Rbt.Parameter_File>
/home/malgorzata/Desktop/rDock_2013.1_src/data/scripts/hard_docking.prm

>  <Rbt.Receptor>
cavity.prm

>  <SCORE>
-12.9213

>  <SCORE.INTER>
-10.993

>  <SCORE.INTER.CONST>
1

>  <SCORE.INTER.POLAR>
-0.496645

>  <SCORE.INTER.REPUL>
0

>  <SCORE.INTER.ROT>
3

>  <SCORE.INTER.VDW>
-17.7044

>  <SCORE.INTER.norm>
-0.610724

>  <SCORE.INTRA>
-0.924289

>  <SCORE.INTRA.DIHEDRAL>
1.0477

>  <SCORE.INTRA.DIHEDRAL.0>
5.47211

>  <SCORE.INTRA.POLAR>
0

>  <SCORE.INTRA.POLAR.0>
0

>  <SCORE.INTRA.REPUL>
0

>  <SCORE.INTRA.REPUL.0>
0

>  <SCORE.INTRA.VDW>
-1.44814

>  <SCORE.INTRA.VDW.0>
0.722234

>  <SCORE.INTRA.norm>
-0.0513494

>  <SCORE.RESTR>
0

>  <SCORE.RESTR.CAVITY>
0

>  <SCORE.RESTR.norm>
0

>  <SCORE.SYSTEM>
-1.00396

>  <SCORE.SYSTEM.CONST>
0

>  <SCORE.SYSTEM.DIHEDRAL>
1.09564

>  <SCORE.SYSTEM.POLAR>
-0.326542

>  <SCORE.SYSTEM.VDW>
-0.441536

>  <SCORE.SYSTEM.norm>
-0.0557754

>  <SCORE.heavy>
18

>  <SCORE.norm>
-0.717849

$$$$
FLP.pdb
  rDOCK(R)          3D
libRbt.so/2013.1/901 2013/11/27
 19 20  0  0  0  0  0  0  0  0999 V2000
   25.7777   20.3971   17.4677 C   0  0  0  0  0  0
   25.8200   21.3285   16.4067 C   0  0  0  0  0  0
   26.9974   22.0173   16.1335 C   0  0  0  0  0  0
   28.1263   21.7750   16.9182 C   0  0  0  0  0  0
   28.0764   20.8442   17.9735 C   0  0  0  0  0  0
   26.8976   20.1572   18.2446 C   0  0  0  0  0  0
   27.0526   23.0437   15.0222 C   0  0  0  0  0  0
   27.7330   24.2744   15.1882 C   0  0  0  0  0  0
   27.7829   25.2106   14.1106 C   0  0  0  0  0  0
   27.1380   24.8877   12.8672 C   0  0  0  0  0  0
   26.4807   23.6723   12.7193 C   0  0  0  0  0  0
   26.4276   22.7569   13.7752 C   0  0  0  0  0  0
   27.0754   25.8866   11.7299 C   0  0  0  0  0  0
   28.4214   26.5856   11.5540 C   0  0  0  0  0  0
   25.9868   26.9076   12.0584 C   0  0  0  0  0  0
   25.1183   27.1502   11.2571 O   0  0  0  0  0  0
   25.9990   27.5525   13.1949 O   0  0  0  0  0  0
   25.7543   21.5887   13.6006 F   0  0  0  0  0  0
   26.6927   27.4083   13.8080 H   0  0  0  0  0  0
  1  2  2  0  0  0
  2  3  1  0  0  0
  3  7  1  0  0  0
  4  3  2  0  0  0
  5  4  1  0  0  0
  6  5  2  0  0  0
  6  1  1  0  0  0
  7  8  2  0  0  0
  7 12  1  0  0  0
  8  9  1  0  0  0
  9 10  2  0  0  0
 10 13  1  0  0  0
 11 10  1  0  0  0
 12 11  2  0  0  0
 13 14  1  0  0  0
 15 17  1  0  0  0
 15 13  1  0  0  0
 16 15  2  0  0  0
 17 19  1  0  0  0
 18 12  1  0  0  0
M  END
>  <CHROM.0>
-1.29855504,-150.73612791,65.42904589,104.26381874,-55.68477198,1.81708922
-60.37810297

>  <CHROM.1>
138.30024342,43.33266259,1.68224311,-127.97060898,26.77283688,23.74190828
14.36473430,1.50945398,0.72488833,2.45323711

>  <FORMUL>
      FLP    C15 H13 F1 O2

>  <HET>
 FLP  A 701      18

>  <HETNAM>
     FLP FLURBIPROFEN

>  <Name>
FLP.pdb

>  <RI>
0

>  <Rbt.Current_Directory>
/home/malgorzata/Desktop/rDOCK_IFD/Wyniki/4c_COX2/IFD

>  <Rbt.Executable>
rbdock ($Id: //depot/dev/client3/rdock/2013.1/src/exe/rbdock.cxx#4 $)

>  <Rbt.Library>
libRbt.so (2013.1, Build901 2013/11/27)

>  <Rbt.Parameter_File>
/home/malgorzata/Desktop/rDock_2013.1_src/data/scripts/hard_docking.prm

>  <Rbt.Receptor>
cavity.prm

>  <SCORE>
-13.4586

>  <SCORE.INTER>
-10.3575

>  <SCORE.INTER.CONST>
1

>  <SCORE.INTER.POLAR>
-0.592722

>  <SCORE.INTER.REPUL>
0

>  <SCORE.INTER.ROT>
3

>  <SCORE.INTER.VDW>
-16.7422

>  <SCORE.INTER.norm>
-0.575414

>  <SCORE.INTRA>
-1.6186

>  <SCORE.INTRA.DIHEDRAL>
-1.66341

>  <SCORE.INTRA.DIHEDRAL.0>
5.47211

>  <SCORE.INTRA.POLAR>
0

>  <SCORE.INTRA.POLAR.0>
0

>  <SCORE.INTRA.REPUL>
0

>  <SCORE.INTRA.REPUL.0>
0

>  <SCORE.INTRA.VDW>
-0.786895

>  <SCORE.INTRA.VDW.0>
0.722234

>  <SCORE.INTRA.norm>
-0.0899222

>  <SCORE.RESTR>
0

>  <SCORE.RESTR.CAVITY>
0

>  <SCORE.RESTR.norm>
0

>  <SCORE.SYSTEM>
-1.48259

>  <SCORE.SYSTEM.CONST>
0

>  <SCORE.SYSTEM.DIHEDRAL>
1.78912

>  <SCORE.SYSTEM.REPUL>
0.0393672

>  <SCORE.SYSTEM.VDW>
-2.57398

>  <SCORE.SYSTEM.norm>
-0.082366

>  <SCORE.heavy>
18

>  <SCORE.norm>
-0.747703

$$$$
FLP.pdb
  rDOCK(R)          3D
libRbt.so/2013.1/901 2013/11/27
 19 20  0  0  0  0  0  0  0  0999 V2000
   22.8621   17.0093   20.7885 C   0  0  0  0  0  0
   23.4022   17.8638   19.8021 C   0  0  0  0  0  0
   23.1402   19.2293   19.8468 C   0  0  0  0  0  0
   22.3419   19.7366   20.8735 C   0  0  0  0  0  0
   21.8078   18.8784   21.8537 C   0  0  0  0  0  0
   22.0713   17.5133   21.8062 C   0  0  0  0  0  0
   23.6825   20.1561   18.7797 C   0  0  0  0  0  0
   22.8264   21.0004   18.0319 C   0  0  0  0  0  0
   23.3751   21.8778   17.0474 C   0  0  0  0  0  0
   24.7960   21.8902   16.8292 C   0  0  0  0  0  0
   25.6221   21.0600   17.5771 C   0  0  0  0  0  0
   25.0853   20.1976   18.5382 C   0  0  0  0  0  0
   25.4163   22.7269   15.7292 C   0  0  0  0  0  0
   25.2802   24.2148   16.0439 C   0  0  0  0  0  0
   24.6987   22.3939   14.4217 C   0  0  0  0  0  0
   25.2855   21.8284   13.5323 O   0  0  0  0  0  0
   23.4530   22.7435   14.2374 O   0  0  0  0  0  0
   25.9231   19.3827   19.2329 F   0  0  0  0  0  0
   22.9949   23.2145   14.9055 H   0  0  0  0  0  0
  1  2  2  0  0  0
  2  3  1  0  0  0
  3  7  1  0  0  0
  4  3  2  0  0  0
  5  4  1  0  0  0
  6  5  2  0  0  0
  6  1  1  0  0  0
  7  8  2  0  0  0
  7 12  1  0  0  0
  8  9  1  0  0  0
  9 10  2  0  0  0
 10 13  1  0  0  0
 11 10  1  0  0  0
 12 11  2  0  0  0
 13 14  1  0  0  0
 15 17  1  0  0  0
 15 13  1  0  0  0
 16 15  2  0  0  0
 17 19  1  0  0  0
 18 12  1  0  0  0
M  END
>  <CHROM.0>
152.46511207,-174.80651923,-76.72254925,106.46947061,-178.64458735,-4.43205968
-60.37810297

>  <CHROM.1>
124.54683642,68.43859562,0.93606898,-112.92966697,24.00712052,20.58992737
17.95915793,-1.84380741,0.21840803,-0.87690757

>  <FORMUL>
      FLP    C15 H13 F1 O2

>  <HET>
 FLP  A 701      18

>  <HETNAM>
     FLP FLURBIPROFEN

>  <Name>
FLP.pdb

>  <RI>
0

>  <Rbt.Current_Directory>
/home/malgorzata/Desktop/rDOCK_IFD/Wyniki/4c_COX2/IFD

>  <Rbt.Executable>
rbdock ($Id: //depot/dev/client3/rdock/2013.1/src/exe/rbdock.cxx#4 $)

>  <Rbt.Library>
libRbt.so (2013.1, Build901 2013/11/27)

>  <Rbt.Parameter_File>
/home/malgorzata/Desktop/rDock_2013.1_src/data/scripts/hard_docking.prm

>  <Rbt.Receptor>
cavity.prm

>  <SCORE>
-15.9029

>  <SCORE.INTER>
-13.0016

>  <SCORE.INTER.CONST>
1

>  <SCORE.INTER.POLAR>
0

>  <SCORE.INTER.REPUL>
0.00107588

>  <SCORE.INTER.ROT>
3

>  <SCORE.INTER.VDW>
-21.407

>  <SCORE.INTER.norm>
-0.722312

>  <SCORE.INTRA>
-1.85263

>  <SCORE.INTRA.DIHEDRAL>
-0.671265

>  <SCORE.INTRA.DIHEDRAL.0>
5.47211

>  <SCORE.INTRA.POLAR>
0

>  <SCORE.INTRA.POLAR.0>
0

>  <SCORE.INTRA.REPUL>
0

>  <SCORE.INTRA.REPUL.0>
0

>  <SCORE.INTRA.VDW>
-1.517

>  <SCORE.INTRA.VDW.0>
0.722234

>  <SCORE.INTRA.norm>
-0.102924

>  <SCORE.RESTR>
0

>  <SCORE.RESTR.CAVITY>
0

>  <SCORE.RESTR.norm>
0

>  <SCORE.SYSTEM>
-1.04868

>  <SCORE.SYSTEM.CONST>
0

>  <SCORE.SYSTEM.DIHEDRAL>
2.81011

>  <SCORE.SYSTEM.POLAR>
-0.00169576

>  <SCORE.SYSTEM.VDW>
-2.44797

>  <SCORE.SYSTEM.norm>
-0.05826

>  <SCORE.heavy>
18

>  <SCORE.norm>
-0.883496

$$$$
FLP.pdb
  rDOCK(R)          3D
libRbt.so/2013.1/901 2013/11/27
 19 20  0  0  0  0  0  0  0  0999 V2000
   27.1998   23.1760   15.2631 C   0  0  0  0  0  0
   25.8377   22.8656   15.4710 C   0  0  0  0  0  0
   25.3901   22.5198   16.7420 C   0  0  0  0  0  0
   26.3011   22.4850   17.7991 C   0  0  0  0  0  0
   27.6573   22.7966   17.5841 C   0  0  0  0  0  0
   28.1021   23.1417   16.3120 C   0  0  0  0  0  0
   23.9408   22.1515   16.9776 C   0  0  0  0  0  0
   22.8902   22.8297   16.3133 C   0  0  0  0  0  0
   21.5351   22.4413   16.5437 C   0  0  0  0  0  0
   21.2568   21.3620   17.4515 C   0  0  0  0  0  0
   22.3005   20.7028   18.0896 C   0  0  0  0  0  0
   23.6273   21.0852   17.8680 C   0  0  0  0  0  0
   19.8349   20.9789   17.8069 C   0  0  0  0  0  0
   19.2388   20.0709   16.7338 C   0  0  0  0  0  0
   19.0166   22.2639   17.9284 C   0  0  0  0  0  0
   18.7746   22.9261   16.9497 O   0  0  0  0  0  0
   18.5955   22.6781   19.0942 O   0  0  0  0  0  0
   24.6199   20.4324   18.5293 F   0  0  0  0  0  0
   18.7763   22.1747   19.8635 H   0  0  0  0  0  0
  1  2  2  0  0  0
  2  3  1  0  0  0
  3  7  1  0  0  0
  4  3  2  0  0  0
  5  4  1  0  0  0
  6  5  2  0  0  0
  6  1  1  0  0  0
  7  8  2  0  0  0
  7 12  1  0  0  0
  8  9  1  0  0  0
  9 10  2  0  0  0
 10 13  1  0  0  0
 11 10  1  0  0  0
 12 11  2  0  0  0
 13 14  1  0  0  0
 15 17  1  0  0  0
 15 13  1  0  0  0
 16 15  2  0  0  0
 17 19  1  0  0  0
 18 12  1  0  0  0
M  END
>  <CHROM.0>
4.62287083,17.01508692,64.28601074,103.83396638,-178.88046781,156.56546339
-60.37810297

>  <CHROM.1>
-38.43605511,82.47321620,-1.53575506,68.82776221,23.00610147,22.01692740
17.24813670,0.17925904,0.02454311,-0.75757773

>  <FORMUL>
      FLP    C15 H13 F1 O2

>  <HET>
 FLP  A 701      18

>  <HETNAM>
     FLP FLURBIPROFEN

>  <Name>
FLP.pdb

>  <RI>
0

>  <Rbt.Current_Directory>
/home/malgorzata/Desktop/rDOCK_IFD/Wyniki/4c_COX2/IFD

>  <Rbt.Executable>
rbdock ($Id: //depot/dev/client3/rdock/2013.1/src/exe/rbdock.cxx#4 $)

>  <Rbt.Library>
libRbt.so (2013.1, Build901 2013/11/27)

>  <Rbt.Parameter_File>
/home/malgorzata/Desktop/rDock_2013.1_src/data/scripts/hard_docking.prm

>  <Rbt.Receptor>
cavity.prm

>  <SCORE>
-14.5229

>  <SCORE.INTER>
-12.8724

>  <SCORE.INTER.CONST>
1

>  <SCORE.INTER.POLAR>
-0.346214

>  <SCORE.INTER.REPUL>
0

>  <SCORE.INTER.ROT>
3

>  <SCORE.INTER.VDW>
-20.0953

>  <SCORE.INTER.norm>
-0.715136

>  <SCORE.INTRA>
-1.0001

>  <SCORE.INTRA.DIHEDRAL>
-0.612703

>  <SCORE.INTRA.DIHEDRAL.0>
5.47211

>  <SCORE.INTRA.POLAR>
0

>  <SCORE.INTRA.POLAR.0>
0

>  <SCORE.INTRA.REPUL>
0

>  <SCORE.INTRA.REPUL.0>
0

>  <SCORE.INTRA.VDW>
-0.693748

>  <SCORE.INTRA.VDW.0>
0.722234

>  <SCORE.INTRA.norm>
-0.0555611

>  <SCORE.RESTR>
0

>  <SCORE.RESTR.CAVITY>
0

>  <SCORE.RESTR.norm>
0

>  <SCORE.SYSTEM>
-0.650396

>  <SCORE.SYSTEM.CONST>
0

>  <SCORE.SYSTEM.DIHEDRAL>
1.70944

>  <SCORE.SYSTEM.VDW>
-1.50511

>  <SCORE.SYSTEM.norm>
-0.0361331

>  <SCORE.heavy>
18

>  <SCORE.norm>
-0.80683

$$$$
FLP.pdb
  rDOCK(R)          3D
libRbt.so/2013.1/901 2013/11/27
 19 20  0  0  0  0  0  0  0  0999 V2000
   28.2743   27.6640   10.8062 C   0  0  0  0  0  0
   28.0167   26.6689   11.7749 C   0  0  0  0  0  0
   26.7076   26.3931   12.1565 C   0  0  0  0  0  0
   25.6621   27.1096   11.5714 C   0  0  0  0  0  0
   25.9269   28.0995   10.6057 C   0  0  0  0  0  0
   27.2369   28.3733   10.2264 C   0  0  0  0  0  0
   26.4141   25.3538   13.2173 C   0  0  0  0  0  0
   25.9511   25.7234   14.5034 C   0  0  0  0  0  0
   25.6638   24.7146   15.4730 C   0  0  0  0  0  0
   25.8503   23.3319   15.1266 C   0  0  0  0  0  0
   26.2987   22.9869   13.8574 C   0  0  0  0  0  0
   26.5844   23.9740   12.9089 C   0  0  0  0  0  0
   25.6571   22.2311   16.1493 C   0  0  0  0  0  0
   24.3414   22.4205   16.9007 C   0  0  0  0  0  0
   26.8347   22.2790   17.1221 C   0  0  0  0  0  0
   27.6379   21.3794   17.1501 O   0  0  0  0  0  0
   26.9704   23.2763   17.9556 O   0  0  0  0  0  0
   27.0445   23.5985   11.6859 F   0  0  0  0  0  0
   27.6924   23.2929   18.5527 H   0  0  0  0  0  0
  1  2  2  0  0  0
  2  3  1  0  0  0
  3  7  1  0  0  0
  4  3  2  0  0  0
  5  4  1  0  0  0
  6  5  2  0  0  0
  6  1  1  0  0  0
  7  8  2  0  0  0
  7 12  1  0  0  0
  8  9  1  0  0  0
  9 10  2  0  0  0
 10 13  1  0  0  0
 11 10  1  0  0  0
 12 11  2  0  0  0
 13 14  1  0  0  0
 15 17  1  0  0  0
 15 13  1  0  0  0
 16 15  2  0  0  0
 17 19  1  0  0  0
 18 12  1  0  0  0
M  END
>  <CHROM.0>
3.46700864,166.98384466,63.30966246,102.98365838,57.58928004,-0.91981641
-60.37810297

>  <CHROM.1>
109.01360830,48.23626153,179.52203880,-112.70318556,26.52439384,24.65157939
13.92090394,-1.41154661,-0.98045982,2.39724308

>  <FORMUL>
      FLP    C15 H13 F1 O2

>  <HET>
 FLP  A 701      18

>  <HETNAM>
     FLP FLURBIPROFEN

>  <Name>
FLP.pdb

>  <RI>
0

>  <Rbt.Current_Directory>
/home/malgorzata/Desktop/rDOCK_IFD/Wyniki/4c_COX2/IFD

>  <Rbt.Executable>
rbdock ($Id: //depot/dev/client3/rdock/2013.1/src/exe/rbdock.cxx#4 $)

>  <Rbt.Library>
libRbt.so (2013.1, Build901 2013/11/27)

>  <Rbt.Parameter_File>
/home/malgorzata/Desktop/rDock_2013.1_src/data/scripts/hard_docking.prm

>  <Rbt.Receptor>
cavity.prm

>  <SCORE>
-15.2244

>  <SCORE.INTER>
-10.2139

>  <SCORE.INTER.CONST>
1

>  <SCORE.INTER.POLAR>
0

>  <SCORE.INTER.REPUL>
0

>  <SCORE.INTER.ROT>
3

>  <SCORE.INTER.VDW>
-18.6139

>  <SCORE.INTER.norm>
-0.567441

>  <SCORE.INTRA>
-1.52076

>  <SCORE.INTRA.DIHEDRAL>
0.426783

>  <SCORE.INTRA.DIHEDRAL.0>
5.47211

>  <SCORE.INTRA.POLAR>
0

>  <SCORE.INTRA.POLAR.0>
0

>  <SCORE.INTRA.REPUL>
0

>  <SCORE.INTRA.REPUL.0>
0

>  <SCORE.INTRA.VDW>
-1.73415

>  <SCORE.INTRA.VDW.0>
0.722234

>  <SCORE.INTRA.norm>
-0.0844866

>  <SCORE.RESTR>
0

>  <SCORE.RESTR.CAVITY>
0

>  <SCORE.RESTR.norm>
0

>  <SCORE.SYSTEM>
-3.48969

>  <SCORE.SYSTEM.CONST>
0

>  <SCORE.SYSTEM.DIHEDRAL>
0.724987

>  <SCORE.SYSTEM.POLAR>
-0.327312

>  <SCORE.SYSTEM.VDW>
-2.73932

>  <SCORE.SYSTEM.norm>
-0.193872

>  <SCORE.heavy>
18

>  <SCORE.norm>
-0.845799

$$$$
FLP.pdb
  rDOCK(R)          3D
libRbt.so/2013.1/901 2013/11/27
 19 20  0  0  0  0  0  0  0  0999 V2000
   27.4502   21.5684   19.9395 C   0  0  0  0  0  0
   27.1241   22.3412   18.8031 C   0  0  0  0  0  0
   27.8221   22.1569   17.6139 C   0  0  0  0  0  0
   28.8410   21.2040   17.5626 C   0  0  0  0  0  0
   29.1597   20.4368   18.6995 C   0  0  0  0  0  0
   28.4602   20.6236   19.8873 C   0  0  0  0  0  0
   27.5095   22.9990   16.3954 C   0  0  0  0  0  0
   28.2795   22.8972   15.2114 C   0  0  0  0  0  0
   27.9427   23.6918   14.0733 C   0  0  0  0  0  0
   26.8212   24.5880   14.1475 C   0  0  0  0  0  0
   26.0721   24.6700   15.3151 C   0  0  0  0  0  0
   26.4037   23.8956   16.4313 C   0  0  0  0  0  0
   26.4847   25.5244   13.0053 C   0  0  0  0  0  0
   25.0154   25.3876   12.6131 C   0  0  0  0  0  0
   27.3844   25.1679   11.8225 C   0  0  0  0  0  0
   28.2574   25.9232   11.4727 O   0  0  0  0  0  0
   27.2012   24.0586   11.1564 O   0  0  0  0  0  0
   25.6621   24.0214   17.5639 F   0  0  0  0  0  0
   26.4513   23.5250   11.3322 H   0  0  0  0  0  0
  1  2  2  0  0  0
  2  3  1  0  0  0
  3  7  1  0  0  0
  4  3  2  0  0  0
  5  4  1  0  0  0
  6  5  2  0  0  0
  6  1  1  0  0  0
  7  8  2  0  0  0
  7 12  1  0  0  0
  8  9  1  0  0  0
  9 10  2  0  0  0
 10 13  1  0  0  0
 11 10  1  0  0  0
 12 11  2  0  0  0
 13 14  1  0  0  0
 15 17  1  0  0  0
 15 13  1  0  0  0
 16 15  2  0  0  0
 17 19  1  0  0  0
 18 12  1  0  0  0
M  END
>  <CHROM.0>
19.35984360,-172.07943569,62.35104388,-44.34923568,57.96210177,2.08312595
-60.37810297

>  <CHROM.1>
174.97051721,128.58359860,7.56585112,-110.62118407,27.27651655,23.46113630
15.55647182,1.40662012,-0.61894815,1.97012282

>  <FORMUL>
      FLP    C15 H13 F1 O2

>  <HET>
 FLP  A 701      18

>  <HETNAM>
     FLP FLURBIPROFEN

>  <Name>
FLP.pdb

>  <RI>
0

>  <Rbt.Current_Directory>
/home/malgorzata/Desktop/rDOCK_IFD/Wyniki/4c_COX2/IFD

>  <Rbt.Executable>
rbdock ($Id: //depot/dev/client3/rdock/2013.1/src/exe/rbdock.cxx#4 $)

>  <Rbt.Library>
libRbt.so (2013.1, Build901 2013/11/27)

>  <Rbt.Parameter_File>
/home/malgorzata/Desktop/rDock_2013.1_src/data/scripts/hard_docking.prm

>  <Rbt.Receptor>
cavity.prm

>  <SCORE>
-15.0066

>  <SCORE.INTER>
-11.8683

>  <SCORE.INTER.CONST>
1

>  <SCORE.INTER.POLAR>
-0.579038

>  <SCORE.INTER.REPUL>
0

>  <SCORE.INTER.ROT>
3

>  <SCORE.INTER.VDW>
-18.2996

>  <SCORE.INTER.norm>
-0.659353

>  <SCORE.INTRA>
0.184389

>  <SCORE.INTRA.DIHEDRAL>
-3.31745

>  <SCORE.INTRA.DIHEDRAL.0>
5.47211

>  <SCORE.INTRA.POLAR>
0

>  <SCORE.INTRA.POLAR.0>
0

>  <SCORE.INTRA.REPUL>
0

>  <SCORE.INTRA.REPUL.0>
0

>  <SCORE.INTRA.VDW>
1.84312

>  <SCORE.INTRA.VDW.0>
0.722234

>  <SCORE.INTRA.norm>
0.0102439

>  <SCORE.RESTR>
0

>  <SCORE.RESTR.CAVITY>
0

>  <SCORE.RESTR.norm>
0

>  <SCORE.SYSTEM>
-3.3226

>  <SCORE.SYSTEM.CONST>
0

>  <SCORE.SYSTEM.DIHEDRAL>
1.04856

>  <SCORE.SYSTEM.POLAR>
-0.323955

>  <SCORE.SYSTEM.VDW>
-2.74544

>  <SCORE.SYSTEM.norm>
-0.184589

>  <SCORE.heavy>
18

>  <SCORE.norm>
-0.833698

$$$$
