BRL.pdb
  rDOCK(R)          3D
libRbt.so/2013.1/901 2013/11/27
 26 28  0  0  0  0  0  0  0  0999 V2000
   15.2750   -1.4877   -0.8062 S   0  0  0  0  0  0
   13.0415   -0.4599   -1.8548 O   0  0  0  0  0  0
   13.9145   -4.8091   -2.4302 O   0  0  0  0  0  0
   11.0291   -3.7534    3.9013 O   0  0  0  0  0  0
   13.2805   -2.6373   -2.2129 N   0  0  0  0  0  0
    9.3121   -1.9871    5.8163 N   0  0  0  0  0  0
   11.0890   -1.1582    4.0968 N   0  0  0  0  0  0
   13.7054   -1.4864   -1.7152 C   0  0  0  0  0  0
   14.1000   -3.6700   -1.9711 C   0  0  0  0  0  0
   15.3196   -3.3130   -1.1098 C   0  0  0  0  0  0
   15.4785   -4.1706    0.2165 C   0  0  0  0  0  0
   14.3577   -4.1357    1.2366 C   0  0  0  0  0  0
   14.3300   -3.1852    2.3423 C   0  0  0  0  0  0
   13.1858   -3.1272    3.1934 C   0  0  0  0  0  0
   12.0605   -4.0098    2.9818 C   0  0  0  0  0  0
   12.1392   -5.0146    1.9173 C   0  0  0  0  0  0
   13.2755   -5.0750    1.0501 C   0  0  0  0  0  0
   10.8543   -4.0999    5.3213 C   0  0  0  0  0  0
    9.4759   -3.4997    5.6694 C   0  0  0  0  0  0
    8.2008   -1.7237    6.8429 C   0  0  0  0  0  0
   10.0483   -0.8576    4.9653 C   0  0  0  0  0  0
   11.7394   -0.2460    3.3261 C   0  0  0  0  0  0
   11.3724    1.1527    3.3723 C   0  0  0  0  0  0
   10.3127    1.5574    4.2462 C   0  0  0  0  0  0
    9.6502    0.5641    5.0438 C   0  0  0  0  0  0
   12.4386   -2.7266   -2.7153 H   0  0  0  0  0  0
  1  8  1  0  0  0
  1 10  1  0  0  0
  2  8  2  0  0  0
  3  9  2  0  0  0
  4 15  1  0  0  0
  4 18  1  0  0  0
  5  8  1  0  0  0
  5  9  1  0  0  0
  5 26  1  0  0  0
  6 19  1  0  0  0
  6 20  1  0  0  0
  6 21  1  0  0  0
  7 21  2  0  0  0
  7 22  1  0  0  0
  9 10  1  0  0  0
 10 11  1  0  0  0
 11 12  1  0  0  0
 12 13  2  0  0  0
 12 17  1  0  0  0
 13 14  1  0  0  0
 14 15  2  0  0  0
 15 16  1  0  0  0
 16 17  2  0  0  0
 18 19  1  0  0  0
 21 25  1  0  0  0
 22 23  2  0  0  0
 23 24  1  0  0  0
 24 25  2  0  0  0
M  END
>  <CHROM.0>
-167.75054108,-61.51214985,-178.35358783,-0.43743279,-165.78416258

>  <CHROM.1>
-77.30244729,-179.53892271,-149.42418636,-9.38165489,65.04141349,-91.76230377
-73.12689543,12.39033432,-2.38964210,1.96865492,0.05011197,0.97383472,-0.28947895

>  <FORMUL>
      BRL    C18 H19 N3 O3 S1

>  <HET>
 BRL  A   1      25

>  <HETNAM>
     BRL 2,4-THIAZOLIDIINEDIONE, 5-[[4-[2-(METHYL-2-PYRIDINYLAMI
   2 BRL NO)ETHOXY]PHENYL]METHYL]-(9CL)

>  <HETSYN>
     BRL BRL49653; ROSIGLITAZONE

>  <Name>
BRL.pdb

>  <RI>
0

>  <Rbt.Current_Directory>
/home/malgorzata/Desktop/rDOCK_IFD/Wyniki/13_ppar-gamma/IFD

>  <Rbt.Executable>
rbdock ($Id: //depot/dev/client3/rdock/2013.1/src/exe/rbdock.cxx#4 $)

>  <Rbt.Library>
libRbt.so (2013.1, Build901 2013/11/27)

>  <Rbt.Parameter_File>
/home/malgorzata/Desktop/rDock_2013.1_src/data/scripts/hard_docking.prm

>  <Rbt.Receptor>
cavity.prm

>  <SCORE>
-8.76792

>  <SCORE.INTER>
-10.6875

>  <SCORE.INTER.CONST>
1

>  <SCORE.INTER.POLAR>
0

>  <SCORE.INTER.REPUL>
0

>  <SCORE.INTER.ROT>
7

>  <SCORE.INTER.VDW>
-23.0875

>  <SCORE.INTER.norm>
-0.4275

>  <SCORE.INTRA>
0.818982

>  <SCORE.INTRA.DIHEDRAL>
3.50326

>  <SCORE.INTRA.DIHEDRAL.0>
5.55665

>  <SCORE.INTRA.POLAR>
0

>  <SCORE.INTRA.POLAR.0>
0

>  <SCORE.INTRA.REPUL>
0

>  <SCORE.INTRA.REPUL.0>
0

>  <SCORE.INTRA.VDW>
-0.932648

>  <SCORE.INTRA.VDW.0>
-2.56587

>  <SCORE.INTRA.norm>
0.0327593

>  <SCORE.RESTR>
1.90251

>  <SCORE.RESTR.CAVITY>
1.90251

>  <SCORE.RESTR.norm>
0.0761003

>  <SCORE.SYSTEM>
-0.801909

>  <SCORE.SYSTEM.CONST>
0

>  <SCORE.SYSTEM.DIHEDRAL>
0.718365

>  <SCORE.SYSTEM.REPUL>
0.200084

>  <SCORE.SYSTEM.VDW>
-2.16151

>  <SCORE.SYSTEM.norm>
-0.0320764

>  <SCORE.heavy>
25

>  <SCORE.norm>
-0.350717

$$$$
BRL.pdb
  rDOCK(R)          3D
libRbt.so/2013.1/901 2013/11/27
 26 28  0  0  0  0  0  0  0  0999 V2000
   14.1632   -5.0026   11.3112 S   0  0  0  0  0  0
   15.4535   -6.6085   13.0141 O   0  0  0  0  0  0
   14.2208   -2.5308   14.3782 O   0  0  0  0  0  0
   10.2957   -1.1054    6.9972 O   0  0  0  0  0  0
   14.8924   -4.6451   13.8839 N   0  0  0  0  0  0
   10.6530   -3.5514    4.0864 N   0  0  0  0  0  0
   10.3246   -6.0249    4.8447 N   0  0  0  0  0  0
   14.9298   -5.5037   12.8768 C   0  0  0  0  0  0
   14.2791   -3.4898   13.5911 C   0  0  0  0  0  0
   13.6898   -3.4354   12.1746 C   0  0  0  0  0  0
   12.1353   -3.1209   12.1064 C   0  0  0  0  0  0
   11.5686   -2.5614   10.8165 C   0  0  0  0  0  0
   11.9090   -1.2337   10.3184 C   0  0  0  0  0  0
   11.4357   -0.8186    9.0376 C   0  0  0  0  0  0
   10.6103   -1.6928    8.2347 C   0  0  0  0  0  0
   10.2095   -2.9909    8.7852 C   0  0  0  0  0  0
   10.6871   -3.4233   10.0627 C   0  0  0  0  0  0
   10.7473   -1.3796    5.6232 C   0  0  0  0  0  0
   10.2367   -2.8114    5.3574 C   0  0  0  0  0  0
   11.0588   -2.5072    3.0360 C   0  0  0  0  0  0
   10.5586   -5.1200    3.8178 C   0  0  0  0  0  0
   10.2085   -7.3693    4.6775 C   0  0  0  0  0  0
   10.3328   -7.9617    3.3634 C   0  0  0  0  0  0
   10.5821   -7.1050    2.2434 C   0  0  0  0  0  0
   10.6980   -5.6904    2.4610 C   0  0  0  0  0  0
   15.2800   -4.8379   14.7680 H   0  0  0  0  0  0
  1  8  1  0  0  0
  1 10  1  0  0  0
  2  8  2  0  0  0
  3  9  2  0  0  0
  4 15  1  0  0  0
  4 18  1  0  0  0
  5  8  1  0  0  0
  5  9  1  0  0  0
  5 26  1  0  0  0
  6 19  1  0  0  0
  6 20  1  0  0  0
  6 21  1  0  0  0
  7 21  2  0  0  0
  7 22  1  0  0  0
  9 10  1  0  0  0
 10 11  1  0  0  0
 11 12  1  0  0  0
 12 13  2  0  0  0
 12 17  1  0  0  0
 13 14  1  0  0  0
 14 15  2  0  0  0
 15 16  1  0  0  0
 16 17  2  0  0  0
 18 19  1  0  0  0
 21 25  1  0  0  0
 22 23  2  0  0  0
 23 24  1  0  0  0
 24 25  2  0  0  0
M  END
>  <CHROM.0>
176.46681401,-60.04167857,65.85265026,2.19131719,5.27548769

>  <CHROM.1>
107.80069977,63.61626921,-22.89324914,-13.37619507,-77.23654386,-66.93568927
-172.18190302,11.98826182,-3.94586911,8.48053116,-0.71022365,1.06302192,-2.46196788

>  <FORMUL>
      BRL    C18 H19 N3 O3 S1

>  <HET>
 BRL  A   1      25

>  <HETNAM>
     BRL 2,4-THIAZOLIDIINEDIONE, 5-[[4-[2-(METHYL-2-PYRIDINYLAMI
   2 BRL NO)ETHOXY]PHENYL]METHYL]-(9CL)

>  <HETSYN>
     BRL BRL49653; ROSIGLITAZONE

>  <Name>
BRL.pdb

>  <RI>
0

>  <Rbt.Current_Directory>
/home/malgorzata/Desktop/rDOCK_IFD/Wyniki/13_ppar-gamma/IFD

>  <Rbt.Executable>
rbdock ($Id: //depot/dev/client3/rdock/2013.1/src/exe/rbdock.cxx#4 $)

>  <Rbt.Library>
libRbt.so (2013.1, Build901 2013/11/27)

>  <Rbt.Parameter_File>
/home/malgorzata/Desktop/rDock_2013.1_src/data/scripts/hard_docking.prm

>  <Rbt.Receptor>
cavity.prm

>  <SCORE>
-10.4463

>  <SCORE.INTER>
-16.0179

>  <SCORE.INTER.CONST>
1

>  <SCORE.INTER.POLAR>
-0.774597

>  <SCORE.INTER.REPUL>
0

>  <SCORE.INTER.ROT>
7

>  <SCORE.INTER.VDW>
-25.7843

>  <SCORE.INTER.norm>
-0.640716

>  <SCORE.INTRA>
6.06501

>  <SCORE.INTRA.DIHEDRAL>
4.02872

>  <SCORE.INTRA.DIHEDRAL.0>
5.55665

>  <SCORE.INTRA.POLAR>
0

>  <SCORE.INTRA.POLAR.0>
0

>  <SCORE.INTRA.REPUL>
0

>  <SCORE.INTRA.REPUL.0>
0

>  <SCORE.INTRA.VDW>
4.05066

>  <SCORE.INTRA.VDW.0>
-2.56587

>  <SCORE.INTRA.norm>
0.242601

>  <SCORE.RESTR>
0

>  <SCORE.RESTR.CAVITY>
0

>  <SCORE.RESTR.norm>
0

>  <SCORE.SYSTEM>
-0.493462

>  <SCORE.SYSTEM.CONST>
0

>  <SCORE.SYSTEM.DIHEDRAL>
0.61603

>  <SCORE.SYSTEM.REPUL>
0.169091

>  <SCORE.SYSTEM.VDW>
-1.64693

>  <SCORE.SYSTEM.norm>
-0.0197385

>  <SCORE.heavy>
25

>  <SCORE.norm>
-0.417854

$$$$
BRL.pdb
  rDOCK(R)          3D
libRbt.so/2013.1/901 2013/11/27
 26 28  0  0  0  0  0  0  0  0999 V2000
    9.0150   -3.4486    6.1270 S   0  0  0  0  0  0
    7.8994   -3.7163    8.5411 O   0  0  0  0  0  0
    7.6863   -7.1272    5.6551 O   0  0  0  0  0  0
   12.6526   -2.5949    0.3592 O   0  0  0  0  0  0
    7.7244   -5.5253    7.2671 N   0  0  0  0  0  0
   14.2709   -4.9665   -0.0964 N   0  0  0  0  0  0
   13.1573   -7.2686    0.4143 N   0  0  0  0  0  0
    8.1203   -4.2782    7.4691 C   0  0  0  0  0  0
    8.0465   -6.0093    6.0594 C   0  0  0  0  0  0
    8.8660   -5.0408    5.1951 C   0  0  0  0  0  0
   10.2587   -5.6088    4.6875 C   0  0  0  0  0  0
   10.9667   -4.8821    3.5612 C   0  0  0  0  0  0
   10.7247   -5.1845    2.1553 C   0  0  0  0  0  0
   11.3335   -4.3796    1.1462 C   0  0  0  0  0  0
   12.1995   -3.2776    1.5009 C   0  0  0  0  0  0
   12.4976   -3.0387    2.9162 C   0  0  0  0  0  0
   11.8842   -3.8309    3.9375 C   0  0  0  0  0  0
   14.0005   -2.3189   -0.1646 C   0  0  0  0  0  0
   14.3959   -3.6432   -0.8511 C   0  0  0  0  0  0
   15.3983   -5.0319    0.9443 C   0  0  0  0  0  0
   13.2511   -6.1522   -0.4058 C   0  0  0  0  0  0
   12.2922   -8.2994    0.2192 C   0  0  0  0  0  0
   11.3833   -8.2954   -0.9065 C   0  0  0  0  0  0
   11.4140   -7.1860   -1.8113 C   0  0  0  0  0  0
   12.3416   -6.1167   -1.5709 C   0  0  0  0  0  0
    7.2373   -6.0498    7.9430 H   0  0  0  0  0  0
  1  8  1  0  0  0
  1 10  1  0  0  0
  2  8  2  0  0  0
  3  9  2  0  0  0
  4 15  1  0  0  0
  4 18  1  0  0  0
  5  8  1  0  0  0
  5  9  1  0  0  0
  5 26  1  0  0  0
  6 19  1  0  0  0
  6 20  1  0  0  0
  6 21  1  0  0  0
  7 21  2  0  0  0
  7 22  1  0  0  0
  9 10  1  0  0  0
 10 11  1  0  0  0
 11 12  1  0  0  0
 12 13  2  0  0  0
 12 17  1  0  0  0
 13 14  1  0  0  0
 14 15  2  0  0  0
 15 16  1  0  0  0
 16 17  2  0  0  0
 18 19  1  0  0  0
 21 25  1  0  0  0
 22 23  2  0  0  0
 23 24  1  0  0  0
 24 25  2  0  0  0
M  END
>  <CHROM.0>
-140.69214377,61.76600055,-178.30317791,3.35157051,-163.29542095

>  <CHROM.1>
-121.41956253,79.59460294,-73.51032515,-174.88237713,-70.79747978,-88.47118679
-50.99285531,11.14442266,-4.98747839,2.72654945,-2.55981714,-0.82409632,-2.49605011

>  <FORMUL>
      BRL    C18 H19 N3 O3 S1

>  <HET>
 BRL  A   1      25

>  <HETNAM>
     BRL 2,4-THIAZOLIDIINEDIONE, 5-[[4-[2-(METHYL-2-PYRIDINYLAMI
   2 BRL NO)ETHOXY]PHENYL]METHYL]-(9CL)

>  <HETSYN>
     BRL BRL49653; ROSIGLITAZONE

>  <Name>
BRL.pdb

>  <RI>
0

>  <Rbt.Current_Directory>
/home/malgorzata/Desktop/rDOCK_IFD/Wyniki/13_ppar-gamma/IFD

>  <Rbt.Executable>
rbdock ($Id: //depot/dev/client3/rdock/2013.1/src/exe/rbdock.cxx#4 $)

>  <Rbt.Library>
libRbt.so (2013.1, Build901 2013/11/27)

>  <Rbt.Parameter_File>
/home/malgorzata/Desktop/rDock_2013.1_src/data/scripts/hard_docking.prm

>  <Rbt.Receptor>
cavity.prm

>  <SCORE>
-11.2908

>  <SCORE.INTER>
-11.3302

>  <SCORE.INTER.CONST>
1

>  <SCORE.INTER.POLAR>
0

>  <SCORE.INTER.REPUL>
0

>  <SCORE.INTER.ROT>
7

>  <SCORE.INTER.VDW>
-23.7302

>  <SCORE.INTER.norm>
-0.453209

>  <SCORE.INTRA>
0.465985

>  <SCORE.INTRA.DIHEDRAL>
3.61629

>  <SCORE.INTRA.DIHEDRAL.0>
5.55665

>  <SCORE.INTRA.POLAR>
0

>  <SCORE.INTRA.POLAR.0>
0

>  <SCORE.INTRA.REPUL>
0

>  <SCORE.INTRA.REPUL.0>
0

>  <SCORE.INTRA.VDW>
-1.34216

>  <SCORE.INTRA.VDW.0>
-2.56587

>  <SCORE.INTRA.norm>
0.0186394

>  <SCORE.RESTR>
0

>  <SCORE.RESTR.CAVITY>
0

>  <SCORE.RESTR.norm>
0

>  <SCORE.SYSTEM>
-0.42661

>  <SCORE.SYSTEM.CONST>
0

>  <SCORE.SYSTEM.DIHEDRAL>
0.844066

>  <SCORE.SYSTEM.REPUL>
0.229772

>  <SCORE.SYSTEM.VDW>
-1.9975

>  <SCORE.SYSTEM.norm>
-0.0170644

>  <SCORE.heavy>
25

>  <SCORE.norm>
-0.451634

$$$$
BRL.pdb
  rDOCK(R)          3D
libRbt.so/2013.1/901 2013/11/27
 26 28  0  0  0  0  0  0  0  0999 V2000
   11.2500   -6.7184   -2.2882 S   0  0  0  0  0  0
   10.9879   -9.0529   -1.0133 O   0  0  0  0  0  0
   14.9779   -7.0312   -1.0534 O   0  0  0  0  0  0
   11.1258   -3.6594    3.9645 O   0  0  0  0  0  0
   13.0284   -8.1883   -0.8901 N   0  0  0  0  0  0
    9.5727   -1.9818    5.9610 N   0  0  0  0  0  0
    9.2567    0.3745    4.8892 N   0  0  0  0  0  0
   11.7718   -8.1505   -1.3052 C   0  0  0  0  0  0
   13.7595   -7.1321   -1.2730 C   0  0  0  0  0  0
   12.9676   -6.0713   -2.0502 C   0  0  0  0  0  0
   13.0126   -4.6114   -1.4284 C   0  0  0  0  0  0
   12.5893   -4.4292    0.0158 C   0  0  0  0  0  0
   13.0893   -3.3434    0.8510 C   0  0  0  0  0  0
   12.5566   -3.1599    2.1622 C   0  0  0  0  0  0
   11.5380   -4.0468    2.6780 C   0  0  0  0  0  0
   11.1060   -5.1820    1.8573 C   0  0  0  0  0  0
   11.6238   -5.3698    0.5368 C   0  0  0  0  0  0
   10.3430   -4.3445    5.0061 C   0  0  0  0  0  0
   10.2958   -3.3146    6.1543 C   0  0  0  0  0  0
    8.2494   -2.0384    6.7381 C   0  0  0  0  0  0
   10.0177   -0.7803    5.0122 C   0  0  0  0  0  0
    9.5936    1.4426    4.1180 C   0  0  0  0  0  0
   10.8152    1.4354    3.3427 C   0  0  0  0  0  0
   11.6609    0.2814    3.4023 C   0  0  0  0  0  0
   11.2705   -0.8261    4.2286 C   0  0  0  0  0  0
   13.3929   -8.9255   -0.3491 H   0  0  0  0  0  0
  1  8  1  0  0  0
  1 10  1  0  0  0
  2  8  2  0  0  0
  3  9  2  0  0  0
  4 15  1  0  0  0
  4 18  1  0  0  0
  5  8  1  0  0  0
  5  9  1  0  0  0
  5 26  1  0  0  0
  6 19  1  0  0  0
  6 20  1  0  0  0
  6 21  1  0  0  0
  7 21  2  0  0  0
  7 22  1  0  0  0
  9 10  1  0  0  0
 10 11  1  0  0  0
 11 12  1  0  0  0
 12 13  2  0  0  0
 12 17  1  0  0  0
 13 14  1  0  0  0
 14 15  2  0  0  0
 15 16  1  0  0  0
 16 17  2  0  0  0
 18 19  1  0  0  0
 21 25  1  0  0  0
 22 23  2  0  0  0
 23 24  1  0  0  0
 24 25  2  0  0  0
M  END
>  <CHROM.0>
170.87245319,61.50136799,62.99619726,2.06200562,-163.50132057

>  <CHROM.1>
-166.07963723,179.57734475,105.66588303,178.16211141,69.38828210,153.39138795
64.63425584,11.44158609,-4.04469093,1.77868280,-0.99918934,1.04659534,0.28334465

>  <FORMUL>
      BRL    C18 H19 N3 O3 S1

>  <HET>
 BRL  A   1      25

>  <HETNAM>
     BRL 2,4-THIAZOLIDIINEDIONE, 5-[[4-[2-(METHYL-2-PYRIDINYLAMI
   2 BRL NO)ETHOXY]PHENYL]METHYL]-(9CL)

>  <HETSYN>
     BRL BRL49653; ROSIGLITAZONE

>  <Name>
BRL.pdb

>  <RI>
0

>  <Rbt.Current_Directory>
/home/malgorzata/Desktop/rDOCK_IFD/Wyniki/13_ppar-gamma/IFD

>  <Rbt.Executable>
rbdock ($Id: //depot/dev/client3/rdock/2013.1/src/exe/rbdock.cxx#4 $)

>  <Rbt.Library>
libRbt.so (2013.1, Build901 2013/11/27)

>  <Rbt.Parameter_File>
/home/malgorzata/Desktop/rDock_2013.1_src/data/scripts/hard_docking.prm

>  <Rbt.Receptor>
cavity.prm

>  <SCORE>
-19.0075

>  <SCORE.INTER>
-17.9292

>  <SCORE.INTER.CONST>
1

>  <SCORE.INTER.POLAR>
-1.6582

>  <SCORE.INTER.REPUL>
0.0287687

>  <SCORE.INTER.ROT>
7

>  <SCORE.INTER.VDW>
-24.8352

>  <SCORE.INTER.norm>
-0.717167

>  <SCORE.INTRA>
-1.09074

>  <SCORE.INTRA.DIHEDRAL>
-1.45865

>  <SCORE.INTRA.DIHEDRAL.0>
5.55665

>  <SCORE.INTRA.POLAR>
0

>  <SCORE.INTRA.POLAR.0>
0

>  <SCORE.INTRA.REPUL>
0

>  <SCORE.INTRA.REPUL.0>
0

>  <SCORE.INTRA.VDW>
-0.361418

>  <SCORE.INTRA.VDW.0>
-2.56587

>  <SCORE.INTRA.norm>
-0.0436297

>  <SCORE.RESTR>
0.586723

>  <SCORE.RESTR.CAVITY>
0.586723

>  <SCORE.RESTR.norm>
0.0234689

>  <SCORE.SYSTEM>
-0.574293

>  <SCORE.SYSTEM.CONST>
0

>  <SCORE.SYSTEM.DIHEDRAL>
0.853375

>  <SCORE.SYSTEM.REPUL>
0.17088

>  <SCORE.SYSTEM.VDW>
-1.85538

>  <SCORE.SYSTEM.norm>
-0.0229717

>  <SCORE.heavy>
25

>  <SCORE.norm>
-0.7603

$$$$
BRL.pdb
  rDOCK(R)          3D
libRbt.so/2013.1/901 2013/11/27
 26 28  0  0  0  0  0  0  0  0999 V2000
    8.5913   -6.7061    5.2836 S   0  0  0  0  0  0
    6.8237   -6.0012    7.1604 O   0  0  0  0  0  0
   10.0698   -3.1342    6.0419 O   0  0  0  0  0  0
   13.6577   -0.7247    2.2065 O   0  0  0  0  0  0
    8.3324   -4.4350    6.7165 N   0  0  0  0  0  0
   13.9444   -1.4612   -1.0444 N   0  0  0  0  0  0
   13.8228   -4.0253   -1.5040 N   0  0  0  0  0  0
    7.8126   -5.6375    6.5251 C   0  0  0  0  0  0
    9.3970   -4.1737    5.9451 C   0  0  0  0  0  0
    9.7435   -5.2952    4.9558 C   0  0  0  0  0  0
    9.7863   -4.8552    3.4311 C   0  0  0  0  0  0
   10.7469   -3.7553    3.0245 C   0  0  0  0  0  0
   10.6285   -2.3868    3.5143 C   0  0  0  0  0  0
   11.6373   -1.4316    3.1879 C   0  0  0  0  0  0
   12.7673   -1.8004    2.3649 C   0  0  0  0  0  0
   12.8284   -3.1571    1.8131 C   0  0  0  0  0  0
   11.8297   -4.1271    2.1426 C   0  0  0  0  0  0
   14.7858   -0.4947    1.2891 C   0  0  0  0  0  0
   14.0995   -0.2876   -0.0775 C   0  0  0  0  0  0
   13.1581   -0.9712   -2.2692 C   0  0  0  0  0  0
   14.3840   -2.9729   -0.7931 C   0  0  0  0  0  0
   14.1718   -5.3310   -1.3544 C   0  0  0  0  0  0
   15.1887   -5.7171   -0.4004 C   0  0  0  0  0  0
   15.8186   -4.6980    0.3838 C   0  0  0  0  0  0
   15.4227   -3.3305    0.1963 C   0  0  0  0  0  0
    7.9698   -3.7909    7.3667 H   0  0  0  0  0  0
  1  8  1  0  0  0
  1 10  1  0  0  0
  2  8  2  0  0  0
  3  9  2  0  0  0
  4 15  1  0  0  0
  4 18  1  0  0  0
  5  8  1  0  0  0
  5  9  1  0  0  0
  5 26  1  0  0  0
  6 19  1  0  0  0
  6 20  1  0  0  0
  6 21  1  0  0  0
  7 21  2  0  0  0
  7 22  1  0  0  0
  9 10  1  0  0  0
 10 11  1  0  0  0
 11 12  1  0  0  0
 12 13  2  0  0  0
 12 17  1  0  0  0
 13 14  1  0  0  0
 14 15  2  0  0  0
 15 16  1  0  0  0
 16 17  2  0  0  0
 18 19  1  0  0  0
 21 25  1  0  0  0
 22 23  2  0  0  0
 23 24  1  0  0  0
 24 25  2  0  0  0
M  END
>  <CHROM.0>
178.58103970,-59.68735505,-177.13338627,9.02654150,-161.94207711

>  <CHROM.1>
-166.51117098,70.79518231,176.69402345,158.08099168,-176.92629730,-64.28856541
-95.45505493,11.76966984,-3.61287330,2.53396766,-3.00069026,0.86242485,0.22849024

>  <FORMUL>
      BRL    C18 H19 N3 O3 S1

>  <HET>
 BRL  A   1      25

>  <HETNAM>
     BRL 2,4-THIAZOLIDIINEDIONE, 5-[[4-[2-(METHYL-2-PYRIDINYLAMI
   2 BRL NO)ETHOXY]PHENYL]METHYL]-(9CL)

>  <HETSYN>
     BRL BRL49653; ROSIGLITAZONE

>  <Name>
BRL.pdb

>  <RI>
0

>  <Rbt.Current_Directory>
/home/malgorzata/Desktop/rDOCK_IFD/Wyniki/13_ppar-gamma/IFD

>  <Rbt.Executable>
rbdock ($Id: //depot/dev/client3/rdock/2013.1/src/exe/rbdock.cxx#4 $)

>  <Rbt.Library>
libRbt.so (2013.1, Build901 2013/11/27)

>  <Rbt.Parameter_File>
/home/malgorzata/Desktop/rDock_2013.1_src/data/scripts/hard_docking.prm

>  <Rbt.Receptor>
cavity.prm

>  <SCORE>
-8.62916

>  <SCORE.INTER>
-11.9793

>  <SCORE.INTER.CONST>
1

>  <SCORE.INTER.POLAR>
0

>  <SCORE.INTER.REPUL>
0

>  <SCORE.INTER.ROT>
7

>  <SCORE.INTER.VDW>
-24.3793

>  <SCORE.INTER.norm>
-0.479174

>  <SCORE.INTRA>
1.5974

>  <SCORE.INTRA.DIHEDRAL>
3.39198

>  <SCORE.INTRA.DIHEDRAL.0>
5.55665

>  <SCORE.INTRA.POLAR>
0

>  <SCORE.INTRA.POLAR.0>
0

>  <SCORE.INTRA.REPUL>
0

>  <SCORE.INTRA.REPUL.0>
0

>  <SCORE.INTRA.VDW>
-0.0985886

>  <SCORE.INTRA.VDW.0>
-2.56587

>  <SCORE.INTRA.norm>
0.0638961

>  <SCORE.RESTR>
2.58095

>  <SCORE.RESTR.CAVITY>
2.58095

>  <SCORE.RESTR.norm>
0.103238

>  <SCORE.SYSTEM>
-0.828167

>  <SCORE.SYSTEM.CONST>
0

>  <SCORE.SYSTEM.DIHEDRAL>
1.01995

>  <SCORE.SYSTEM.REPUL>
0.169456

>  <SCORE.SYSTEM.VDW>
-2.18542

>  <SCORE.SYSTEM.norm>
-0.0331267

>  <SCORE.heavy>
25

>  <SCORE.norm>
-0.345167

$$$$
BRL.pdb
  rDOCK(R)          3D
libRbt.so/2013.1/901 2013/11/27
 26 28  0  0  0  0  0  0  0  0999 V2000
   12.1298   -7.8009    0.6566 S   0  0  0  0  0  0
   10.2784   -9.0691   -0.7953 O   0  0  0  0  0  0
    8.9692   -6.1398    2.3214 O   0  0  0  0  0  0
   10.2863   -1.1103    5.5095 O   0  0  0  0  0  0
    9.4374   -7.6301    0.6704 N   0  0  0  0  0  0
   10.4975    0.2607    8.2613 N   0  0  0  0  0  0
   11.2364   -2.2376    8.3769 N   0  0  0  0  0  0
   10.4618   -8.2427    0.0976 C   0  0  0  0  0  0
    9.7907   -6.7476    1.6154 C   0  0  0  0  0  0
   11.3079   -6.5838    1.7830 C   0  0  0  0  0  0
   11.8455   -5.1002    1.6109 C   0  0  0  0  0  0
   11.3537   -4.0384    2.5746 C   0  0  0  0  0  0
   10.5938   -4.3590    3.7772 C   0  0  0  0  0  0
   10.2679   -3.3224    4.7024 C   0  0  0  0  0  0
   10.6690   -1.9558    4.4541 C   0  0  0  0  0  0
   11.3602   -1.6373    3.2011 C   0  0  0  0  0  0
   11.7029   -2.6693    2.2713 C   0  0  0  0  0  0
    9.1474   -1.1371    6.4418 C   0  0  0  0  0  0
    9.3358    0.1485    7.2743 C   0  0  0  0  0  0
   10.7085    1.7471    8.5848 C   0  0  0  0  0  0
   11.4363   -0.9219    8.7730 C   0  0  0  0  0  0
   12.0155   -3.2852    8.7571 C   0  0  0  0  0  0
   13.1440   -3.0819    9.6394 C   0  0  0  0  0  0
   13.4230   -1.7569   10.1052 C   0  0  0  0  0  0
   12.5771   -0.6770    9.6808 C   0  0  0  0  0  0
    8.5007   -7.8068    0.4245 H   0  0  0  0  0  0
  1  8  1  0  0  0
  1 10  1  0  0  0
  2  8  2  0  0  0
  3  9  2  0  0  0
  4 15  1  0  0  0
  4 18  1  0  0  0
  5  8  1  0  0  0
  5  9  1  0  0  0
  5 26  1  0  0  0
  6 19  1  0  0  0
  6 20  1  0  0  0
  6 21  1  0  0  0
  7 21  2  0  0  0
  7 22  1  0  0  0
  9 10  1  0  0  0
 10 11  1  0  0  0
 11 12  1  0  0  0
 12 13  2  0  0  0
 12 17  1  0  0  0
 13 14  1  0  0  0
 14 15  2  0  0  0
 15 16  1  0  0  0
 16 17  2  0  0  0
 18 19  1  0  0  0
 21 25  1  0  0  0
 22 23  2  0  0  0
 23 24  1  0  0  0
 24 25  2  0  0  0
M  END
>  <CHROM.0>
179.22007800,177.70911971,-176.45156993,7.04981997,-164.02831411

>  <CHROM.1>
-31.36565497,-176.92906913,161.73371657,-2.38362289,-173.80437240,10.59274622
-69.32004677,10.97633207,-3.72734082,4.56835165,-1.66539628,-0.92489312,0.78917045

>  <FORMUL>
      BRL    C18 H19 N3 O3 S1

>  <HET>
 BRL  A   1      25

>  <HETNAM>
     BRL 2,4-THIAZOLIDIINEDIONE, 5-[[4-[2-(METHYL-2-PYRIDINYLAMI
   2 BRL NO)ETHOXY]PHENYL]METHYL]-(9CL)

>  <HETSYN>
     BRL BRL49653; ROSIGLITAZONE

>  <Name>
BRL.pdb

>  <RI>
0

>  <Rbt.Current_Directory>
/home/malgorzata/Desktop/rDOCK_IFD/Wyniki/13_ppar-gamma/IFD

>  <Rbt.Executable>
rbdock ($Id: //depot/dev/client3/rdock/2013.1/src/exe/rbdock.cxx#4 $)

>  <Rbt.Library>
libRbt.so (2013.1, Build901 2013/11/27)

>  <Rbt.Parameter_File>
/home/malgorzata/Desktop/rDock_2013.1_src/data/scripts/hard_docking.prm

>  <Rbt.Receptor>
cavity.prm

>  <SCORE>
-11.5183

>  <SCORE.INTER>
-11.0371

>  <SCORE.INTER.CONST>
1

>  <SCORE.INTER.POLAR>
0

>  <SCORE.INTER.REPUL>
0

>  <SCORE.INTER.ROT>
7

>  <SCORE.INTER.VDW>
-23.4371

>  <SCORE.INTER.norm>
-0.441484

>  <SCORE.INTRA>
0.505494

>  <SCORE.INTRA.DIHEDRAL>
-0.726047

>  <SCORE.INTRA.DIHEDRAL.0>
5.55665

>  <SCORE.INTRA.POLAR>
0

>  <SCORE.INTRA.POLAR.0>
0

>  <SCORE.INTRA.REPUL>
0

>  <SCORE.INTRA.REPUL.0>
0

>  <SCORE.INTRA.VDW>
0.868518

>  <SCORE.INTRA.VDW.0>
-2.56587

>  <SCORE.INTRA.norm>
0.0202198

>  <SCORE.RESTR>
0

>  <SCORE.RESTR.CAVITY>
0

>  <SCORE.RESTR.norm>
0

>  <SCORE.SYSTEM>
-0.986716

>  <SCORE.SYSTEM.CONST>
0

>  <SCORE.SYSTEM.DIHEDRAL>
0.923898

>  <SCORE.SYSTEM.REPUL>
0.175655

>  <SCORE.SYSTEM.VDW>
-2.32694

>  <SCORE.SYSTEM.norm>
-0.0394686

>  <SCORE.heavy>
25

>  <SCORE.norm>
-0.460733

$$$$
BRL.pdb
  rDOCK(R)          3D
libRbt.so/2013.1/901 2013/11/27
 26 28  0  0  0  0  0  0  0  0999 V2000
   10.0173   -8.0370   -1.2734 S   0  0  0  0  0  0
   11.3129   -6.9276   -3.3313 O   0  0  0  0  0  0
   10.6614   -4.5208    0.3825 O   0  0  0  0  0  0
    8.9320   -4.8620    6.3872 O   0  0  0  0  0  0
   11.1214   -5.5931   -1.5680 N   0  0  0  0  0  0
   10.0283   -1.5182    7.1120 N   0  0  0  0  0  0
   11.6276   -0.5501    8.9302 N   0  0  0  0  0  0
   10.9053   -6.7445   -2.1849 C   0  0  0  0  0  0
   10.6323   -5.5441   -0.3211 C   0  0  0  0  0  0
    9.9887   -6.8554    0.1509 C   0  0  0  0  0  0
   10.5989   -7.4598    1.4859 C   0  0  0  0  0  0
   10.2592   -6.7893    2.8024 C   0  0  0  0  0  0
   10.2397   -5.3403    2.9652 C   0  0  0  0  0  0
    9.7930   -4.7753    4.1972 C   0  0  0  0  0  0
    9.3740   -5.6226    5.2911 C   0  0  0  0  0  0
    9.4777   -7.0770    5.1400 C   0  0  0  0  0  0
    9.9126   -7.6557    3.9059 C   0  0  0  0  0  0
    8.3689   -3.5061    6.4940 C   0  0  0  0  0  0
    9.5600   -2.5941    6.1324 C   0  0  0  0  0  0
    9.2323   -0.2355    6.8301 C   0  0  0  0  0  0
   11.2268   -1.6316    8.1571 C   0  0  0  0  0  0
   12.6236   -0.5892    9.8551 C   0  0  0  0  0  0
   13.3595   -1.8117   10.0941 C   0  0  0  0  0  0
   13.0196   -2.9784    9.3367 C   0  0  0  0  0  0
   11.9614   -2.8969    8.3695 C   0  0  0  0  0  0
   11.5982   -4.8409   -1.9874 H   0  0  0  0  0  0
  1  8  1  0  0  0
  1 10  1  0  0  0
  2  8  2  0  0  0
  3  9  2  0  0  0
  4 15  1  0  0  0
  4 18  1  0  0  0
  5  8  1  0  0  0
  5  9  1  0  0  0
  5 26  1  0  0  0
  6 19  1  0  0  0
  6 20  1  0  0  0
  6 21  1  0  0  0
  7 21  2  0  0  0
  7 22  1  0  0  0
  9 10  1  0  0  0
 10 11  1  0  0  0
 11 12  1  0  0  0
 12 13  2  0  0  0
 12 17  1  0  0  0
 13 14  1  0  0  0
 14 15  2  0  0  0
 15 16  1  0  0  0
 16 17  2  0  0  0
 18 19  1  0  0  0
 21 25  1  0  0  0
 22 23  2  0  0  0
 23 24  1  0  0  0
 24 25  2  0  0  0
M  END
>  <CHROM.0>
171.01010011,64.40443719,-64.33258694,-175.79497967,-165.57146650

>  <CHROM.1>
25.50953207,-68.54780872,-88.61563475,175.07059702,-161.39533855,-42.48322301
-123.24231466,10.52389143,-4.64801155,3.87172542,1.74289444,-1.13972105,-1.90930010

>  <FORMUL>
      BRL    C18 H19 N3 O3 S1

>  <HET>
 BRL  A   1      25

>  <HETNAM>
     BRL 2,4-THIAZOLIDIINEDIONE, 5-[[4-[2-(METHYL-2-PYRIDINYLAMI
   2 BRL NO)ETHOXY]PHENYL]METHYL]-(9CL)

>  <HETSYN>
     BRL BRL49653; ROSIGLITAZONE

>  <Name>
BRL.pdb

>  <RI>
0

>  <Rbt.Current_Directory>
/home/malgorzata/Desktop/rDOCK_IFD/Wyniki/13_ppar-gamma/IFD

>  <Rbt.Executable>
rbdock ($Id: //depot/dev/client3/rdock/2013.1/src/exe/rbdock.cxx#4 $)

>  <Rbt.Library>
libRbt.so (2013.1, Build901 2013/11/27)

>  <Rbt.Parameter_File>
/home/malgorzata/Desktop/rDock_2013.1_src/data/scripts/hard_docking.prm

>  <Rbt.Receptor>
cavity.prm

>  <SCORE>
-6.58557

>  <SCORE.INTER>
-11.248

>  <SCORE.INTER.CONST>
1

>  <SCORE.INTER.POLAR>
-0.115782

>  <SCORE.INTER.REPUL>
0

>  <SCORE.INTER.ROT>
7

>  <SCORE.INTER.VDW>
-23.2543

>  <SCORE.INTER.norm>
-0.449918

>  <SCORE.INTRA>
5.06094

>  <SCORE.INTRA.DIHEDRAL>
5.1559

>  <SCORE.INTRA.DIHEDRAL.0>
5.55665

>  <SCORE.INTRA.POLAR>
0

>  <SCORE.INTRA.POLAR.0>
0

>  <SCORE.INTRA.REPUL>
0

>  <SCORE.INTRA.REPUL.0>
0

>  <SCORE.INTRA.VDW>
2.48299

>  <SCORE.INTRA.VDW.0>
-2.56587

>  <SCORE.INTRA.norm>
0.202437

>  <SCORE.RESTR>
0

>  <SCORE.RESTR.CAVITY>
0

>  <SCORE.RESTR.norm>
0

>  <SCORE.SYSTEM>
-0.398553

>  <SCORE.SYSTEM.CONST>
0

>  <SCORE.SYSTEM.DIHEDRAL>
0.913968

>  <SCORE.SYSTEM.REPUL>
0.189057

>  <SCORE.SYSTEM.VDW>
-1.80082

>  <SCORE.SYSTEM.norm>
-0.0159421

>  <SCORE.heavy>
25

>  <SCORE.norm>
-0.263423

$$$$
BRL.pdb
  rDOCK(R)          3D
libRbt.so/2013.1/901 2013/11/27
 26 28  0  0  0  0  0  0  0  0999 V2000
   12.7598   -6.3245    0.6577 S   0  0  0  0  0  0
   13.7223   -6.7033   -1.8069 O   0  0  0  0  0  0
   11.5557  -10.0501    0.2213 O   0  0  0  0  0  0
    9.1614   -4.6177    6.5031 O   0  0  0  0  0  0
   12.6478   -8.4624   -0.9840 N   0  0  0  0  0  0
    9.6597   -2.6249    8.4538 N   0  0  0  0  0  0
   10.5506   -0.2465    7.8617 N   0  0  0  0  0  0
   13.1033   -7.2238   -0.8796 C   0  0  0  0  0  0
   11.9819   -8.8900    0.0979 C   0  0  0  0  0  0
   11.8288   -7.8302    1.1979 C   0  0  0  0  0  0
   10.3327   -7.5261    1.6329 C   0  0  0  0  0  0
   10.0944   -6.8247    2.9555 C   0  0  0  0  0  0
   10.7723   -5.5868    3.3226 C   0  0  0  0  0  0
   10.4104   -4.9161    4.5293 C   0  0  0  0  0  0
    9.3906   -5.4572    5.3995 C   0  0  0  0  0  0
    8.7777   -6.7442    5.0573 C   0  0  0  0  0  0
    9.1234   -7.4203    3.8447 C   0  0  0  0  0  0
    7.9384   -4.2494    7.2350 C   0  0  0  0  0  0
    8.4764   -3.5900    8.5223 C   0  0  0  0  0  0
   10.6422   -2.9924    9.5754 C   0  0  0  0  0  0
    9.8101   -1.3617    7.4929 C   0  0  0  0  0  0
   10.7376    0.8495    7.0789 C   0  0  0  0  0  0
   10.1454    0.9231    5.7609 C   0  0  0  0  0  0
    9.3577   -0.1795    5.2981 C   0  0  0  0  0  0
    9.1840   -1.3191    6.1542 C   0  0  0  0  0  0
   12.7856   -9.0192   -1.7840 H   0  0  0  0  0  0
  1  8  1  0  0  0
  1 10  1  0  0  0
  2  8  2  0  0  0
  3  9  2  0  0  0
  4 15  1  0  0  0
  4 18  1  0  0  0
  5  8  1  0  0  0
  5  9  1  0  0  0
  5 26  1  0  0  0
  6 19  1  0  0  0
  6 20  1  0  0  0
  6 21  1  0  0  0
  7 21  2  0  0  0
  7 22  1  0  0  0
  9 10  1  0  0  0
 10 11  1  0  0  0
 11 12  1  0  0  0
 12 13  2  0  0  0
 12 17  1  0  0  0
 13 14  1  0  0  0
 14 15  2  0  0  0
 15 16  1  0  0  0
 16 17  2  0  0  0
 18 19  1  0  0  0
 21 25  1  0  0  0
 22 23  2  0  0  0
 23 24  1  0  0  0
 24 25  2  0  0  0
M  END
>  <CHROM.0>
-177.51522286,-61.04627834,-65.54298028,1.69683456,-163.78157206

>  <CHROM.1>
142.61470707,166.21907455,-134.27083811,150.53839998,-73.27965002,51.29589285
42.10646214,10.62497256,-4.89605356,4.00509313,-1.08250652,0.99167372,0.45442747

>  <FORMUL>
      BRL    C18 H19 N3 O3 S1

>  <HET>
 BRL  A   1      25

>  <HETNAM>
     BRL 2,4-THIAZOLIDIINEDIONE, 5-[[4-[2-(METHYL-2-PYRIDINYLAMI
   2 BRL NO)ETHOXY]PHENYL]METHYL]-(9CL)

>  <HETSYN>
     BRL BRL49653; ROSIGLITAZONE

>  <Name>
BRL.pdb

>  <RI>
0

>  <Rbt.Current_Directory>
/home/malgorzata/Desktop/rDOCK_IFD/Wyniki/13_ppar-gamma/IFD

>  <Rbt.Executable>
rbdock ($Id: //depot/dev/client3/rdock/2013.1/src/exe/rbdock.cxx#4 $)

>  <Rbt.Library>
libRbt.so (2013.1, Build901 2013/11/27)

>  <Rbt.Parameter_File>
/home/malgorzata/Desktop/rDock_2013.1_src/data/scripts/hard_docking.prm

>  <Rbt.Receptor>
cavity.prm

>  <SCORE>
-12.3735

>  <SCORE.INTER>
-13.93

>  <SCORE.INTER.CONST>
1

>  <SCORE.INTER.POLAR>
-1.21929

>  <SCORE.INTER.REPUL>
0

>  <SCORE.INTER.ROT>
7

>  <SCORE.INTER.VDW>
-22.1844

>  <SCORE.INTER.norm>
-0.5572

>  <SCORE.INTRA>
2.17329

>  <SCORE.INTRA.DIHEDRAL>
4.84775

>  <SCORE.INTRA.DIHEDRAL.0>
5.55665

>  <SCORE.INTRA.POLAR>
0

>  <SCORE.INTRA.POLAR.0>
0

>  <SCORE.INTRA.REPUL>
0

>  <SCORE.INTRA.REPUL.0>
0

>  <SCORE.INTRA.VDW>
-0.250589

>  <SCORE.INTRA.VDW.0>
-2.56587

>  <SCORE.INTRA.norm>
0.0869315

>  <SCORE.RESTR>
0

>  <SCORE.RESTR.CAVITY>
0

>  <SCORE.RESTR.norm>
0

>  <SCORE.SYSTEM>
-0.6168

>  <SCORE.SYSTEM.CONST>
0

>  <SCORE.SYSTEM.DIHEDRAL>
0.938456

>  <SCORE.SYSTEM.REPUL>
0.174732

>  <SCORE.SYSTEM.VDW>
-1.95969

>  <SCORE.SYSTEM.norm>
-0.024672

>  <SCORE.heavy>
25

>  <SCORE.norm>
-0.494941

$$$$
BRL.pdb
  rDOCK(R)          3D
libRbt.so/2013.1/901 2013/11/27
 26 28  0  0  0  0  0  0  0  0999 V2000
   13.1146   -0.4189    2.4722 S   0  0  0  0  0  0
   13.6899    1.2934    0.5022 O   0  0  0  0  0  0
   13.7343   -3.0977   -0.3491 O   0  0  0  0  0  0
   10.2913   -3.4757    7.6528 O   0  0  0  0  0  0
   13.7260   -0.8362   -0.1220 N   0  0  0  0  0  0
   13.0891   -2.6238   10.1132 N   0  0  0  0  0  0
   13.4322   -4.9194   11.3020 N   0  0  0  0  0  0
   13.5606    0.1051    0.7941 C   0  0  0  0  0  0
   13.5400   -2.0814    0.3380 C   0  0  0  0  0  0
   13.1067   -2.1469    1.8092 C   0  0  0  0  0  0
   11.7453   -2.9193    2.0738 C   0  0  0  0  0  0
   11.2665   -3.0677    3.5044 C   0  0  0  0  0  0
   11.2019   -4.3571    4.1825 C   0  0  0  0  0  0
   10.8582   -4.4092    5.5667 C   0  0  0  0  0  0
   10.5584   -3.2004    6.3008 C   0  0  0  0  0  0
   10.5475   -1.9214    5.5846 C   0  0  0  0  0  0
   10.9018   -1.8546    4.2000 C   0  0  0  0  0  0
   10.7269   -2.8325    8.9033 C   0  0  0  0  0  0
   12.2535   -3.0580    8.9092 C   0  0  0  0  0  0
   13.5340   -1.1713    9.8879 C   0  0  0  0  0  0
   13.5542   -3.5367   11.3346 C   0  0  0  0  0  0
   13.8324   -5.7535   12.2985 C   0  0  0  0  0  0
   14.4297   -5.2254   13.5058 C   0  0  0  0  0  0
   14.5895   -3.8080   13.6311 C   0  0  0  0  0  0
   14.1546   -2.9605   12.5566 C   0  0  0  0  0  0
   13.9641   -0.6395   -1.0568 H   0  0  0  0  0  0
  1  8  1  0  0  0
  1 10  1  0  0  0
  2  8  2  0  0  0
  3  9  2  0  0  0
  4 15  1  0  0  0
  4 18  1  0  0  0
  5  8  1  0  0  0
  5  9  1  0  0  0
  5 26  1  0  0  0
  6 19  1  0  0  0
  6 20  1  0  0  0
  6 21  1  0  0  0
  7 21  2  0  0  0
  7 22  1  0  0  0
  9 10  1  0  0  0
 10 11  1  0  0  0
 11 12  1  0  0  0
 12 13  2  0  0  0
 12 17  1  0  0  0
 13 14  1  0  0  0
 14 15  2  0  0  0
 15 16  1  0  0  0
 16 17  2  0  0  0
 18 19  1  0  0  0
 21 25  1  0  0  0
 22 23  2  0  0  0
 23 24  1  0  0  0
 24 25  2  0  0  0
M  END
>  <CHROM.0>
-132.61259208,-62.84079454,65.69672824,-178.80370316,-25.13463976

>  <CHROM.1>
135.44327618,-64.18177252,-89.39904439,11.77568631,-57.39144390,-112.96898733
-175.40299262,12.65137720,-2.57644980,6.01852688,-1.62032295,0.69584365,1.84892654

>  <FORMUL>
      BRL    C18 H19 N3 O3 S1

>  <HET>
 BRL  A   1      25

>  <HETNAM>
     BRL 2,4-THIAZOLIDIINEDIONE, 5-[[4-[2-(METHYL-2-PYRIDINYLAMI
   2 BRL NO)ETHOXY]PHENYL]METHYL]-(9CL)

>  <HETSYN>
     BRL BRL49653; ROSIGLITAZONE

>  <Name>
BRL.pdb

>  <RI>
0

>  <Rbt.Current_Directory>
/home/malgorzata/Desktop/rDOCK_IFD/Wyniki/13_ppar-gamma/IFD

>  <Rbt.Executable>
rbdock ($Id: //depot/dev/client3/rdock/2013.1/src/exe/rbdock.cxx#4 $)

>  <Rbt.Library>
libRbt.so (2013.1, Build901 2013/11/27)

>  <Rbt.Parameter_File>
/home/malgorzata/Desktop/rDock_2013.1_src/data/scripts/hard_docking.prm

>  <Rbt.Receptor>
cavity.prm

>  <SCORE>
-12.2601

>  <SCORE.INTER>
-16.3866

>  <SCORE.INTER.CONST>
1

>  <SCORE.INTER.POLAR>
-0.6

>  <SCORE.INTER.REPUL>
0

>  <SCORE.INTER.ROT>
7

>  <SCORE.INTER.VDW>
-26.7466

>  <SCORE.INTER.norm>
-0.655464

>  <SCORE.INTRA>
1.20141

>  <SCORE.INTRA.DIHEDRAL>
0.731702

>  <SCORE.INTRA.DIHEDRAL.0>
5.55665

>  <SCORE.INTRA.POLAR>
0

>  <SCORE.INTRA.POLAR.0>
0

>  <SCORE.INTRA.REPUL>
0

>  <SCORE.INTRA.REPUL.0>
0

>  <SCORE.INTRA.VDW>
0.835557

>  <SCORE.INTRA.VDW.0>
-2.56587

>  <SCORE.INTRA.norm>
0.0480563

>  <SCORE.RESTR>
3.13218

>  <SCORE.RESTR.CAVITY>
3.13218

>  <SCORE.RESTR.norm>
0.125287

>  <SCORE.SYSTEM>
-0.20705

>  <SCORE.SYSTEM.CONST>
0

>  <SCORE.SYSTEM.DIHEDRAL>
1.45777

>  <SCORE.SYSTEM.POLAR>
-0.215681

>  <SCORE.SYSTEM.REPUL>
0.252589

>  <SCORE.SYSTEM.VDW>
-1.46557

>  <SCORE.SYSTEM.norm>
-0.00828201

>  <SCORE.heavy>
25

>  <SCORE.norm>
-0.490403

$$$$
BRL.pdb
  rDOCK(R)          3D
libRbt.so/2013.1/901 2013/11/27
 26 28  0  0  0  0  0  0  0  0999 V2000
    9.8871    0.1354    7.5015 S   0  0  0  0  0  0
   11.4691    0.0815    9.6552 O   0  0  0  0  0  0
   11.2937   -3.5093    6.9935 O   0  0  0  0  0  0
   11.8750   -5.6393    1.5728 O   0  0  0  0  0  0
   11.5455   -1.7743    8.4400 N   0  0  0  0  0  0
   12.5773   -6.7136   -0.9242 N   0  0  0  0  0  0
   14.4668   -5.0661   -1.6429 N   0  0  0  0  0  0
   11.0821   -0.5570    8.6772 C   0  0  0  0  0  0
   11.0448   -2.3408    7.3332 C   0  0  0  0  0  0
   10.0958   -1.4320    6.5394 C   0  0  0  0  0  0
   10.5058   -1.1939    5.0245 C   0  0  0  0  0  0
   10.9274   -2.3905    4.1948 C   0  0  0  0  0  0
   10.1615   -3.6310    4.1574 C   0  0  0  0  0  0
   10.5493   -4.6721    3.2616 C   0  0  0  0  0  0
   11.7013   -4.5178    2.4018 C   0  0  0  0  0  0
   12.5079   -3.2986    2.5110 C   0  0  0  0  0  0
   12.1229   -2.2428    3.3964 C   0  0  0  0  0  0
   10.9850   -6.7540    1.2090 C   0  0  0  0  0  0
   11.7745   -7.4994    0.1124 C   0  0  0  0  0  0
   11.9366   -6.9443   -2.3006 C   0  0  0  0  0  0
   13.9282   -5.9042   -0.6758 C   0  0  0  0  0  0
   15.5995   -4.3309   -1.4834 C   0  0  0  0  0  0
   16.3450   -4.3857   -0.2447 C   0  0  0  0  0  0
   15.8676   -5.2301    0.8087 C   0  0  0  0  0  0
   14.6673   -5.9906    0.6017 C   0  0  0  0  0  0
   12.1989   -2.2230    9.0239 H   0  0  0  0  0  0
  1  8  1  0  0  0
  1 10  1  0  0  0
  2  8  2  0  0  0
  3  9  2  0  0  0
  4 15  1  0  0  0
  4 18  1  0  0  0
  5  8  1  0  0  0
  5  9  1  0  0  0
  5 26  1  0  0  0
  6 19  1  0  0  0
  6 20  1  0  0  0
  6 21  1  0  0  0
  7 21  2  0  0  0
  7 22  1  0  0  0
  9 10  1  0  0  0
 10 11  1  0  0  0
 11 12  1  0  0  0
 12 13  2  0  0  0
 12 17  1  0  0  0
 13 14  1  0  0  0
 14 15  2  0  0  0
 15 16  1  0  0  0
 16 17  2  0  0  0
 18 19  1  0  0  0
 21 25  1  0  0  0
 22 23  2  0  0  0
 23 24  1  0  0  0
 24 25  2  0  0  0
M  END
>  <CHROM.0>
-98.90774900,63.03901771,-63.05286745,-176.64780137,-0.41322150

>  <CHROM.1>
15.63935992,172.41417561,-114.40958160,-170.35271793,170.11026946,48.02357824
-38.77467649,12.05852990,-3.64001833,3.34536515,1.88998852,0.39542227,0.90397674

>  <FORMUL>
      BRL    C18 H19 N3 O3 S1

>  <HET>
 BRL  A   1      25

>  <HETNAM>
     BRL 2,4-THIAZOLIDIINEDIONE, 5-[[4-[2-(METHYL-2-PYRIDINYLAMI
   2 BRL NO)ETHOXY]PHENYL]METHYL]-(9CL)

>  <HETSYN>
     BRL BRL49653; ROSIGLITAZONE

>  <Name>
BRL.pdb

>  <RI>
0

>  <Rbt.Current_Directory>
/home/malgorzata/Desktop/rDOCK_IFD/Wyniki/13_ppar-gamma/IFD

>  <Rbt.Executable>
rbdock ($Id: //depot/dev/client3/rdock/2013.1/src/exe/rbdock.cxx#4 $)

>  <Rbt.Library>
libRbt.so (2013.1, Build901 2013/11/27)

>  <Rbt.Parameter_File>
/home/malgorzata/Desktop/rDock_2013.1_src/data/scripts/hard_docking.prm

>  <Rbt.Receptor>
cavity.prm

>  <SCORE>
-8.88428

>  <SCORE.INTER>
-10.2406

>  <SCORE.INTER.CONST>
1

>  <SCORE.INTER.POLAR>
-0.0491246

>  <SCORE.INTER.REPUL>
0

>  <SCORE.INTER.ROT>
7

>  <SCORE.INTER.VDW>
-22.4736

>  <SCORE.INTER.norm>
-0.409624

>  <SCORE.INTRA>
0.472783

>  <SCORE.INTRA.DIHEDRAL>
0.582901

>  <SCORE.INTRA.DIHEDRAL.0>
5.55665

>  <SCORE.INTRA.POLAR>
0

>  <SCORE.INTRA.POLAR.0>
0

>  <SCORE.INTRA.REPUL>
0

>  <SCORE.INTRA.REPUL.0>
0

>  <SCORE.INTRA.VDW>
0.181332

>  <SCORE.INTRA.VDW.0>
-2.56587

>  <SCORE.INTRA.norm>
0.0189113

>  <SCORE.RESTR>
0

>  <SCORE.RESTR.CAVITY>
0

>  <SCORE.RESTR.norm>
0

>  <SCORE.SYSTEM>
0.883541

>  <SCORE.SYSTEM.CONST>
0

>  <SCORE.SYSTEM.DIHEDRAL>
0.507314

>  <SCORE.SYSTEM.REPUL>
0.374203

>  <SCORE.SYSTEM.VDW>
-1.24113

>  <SCORE.SYSTEM.norm>
0.0353416

>  <SCORE.heavy>
25

>  <SCORE.norm>
-0.355371

$$$$
