BRL.pdb
  rDOCK(R)          3D
libRbt.so/2013.1/901 2013/11/27
 26 28  0  0  0  0  0  0  0  0999 V2000
   12.9828   -8.1199   -1.2486 S   0  0  0  0  0  0
   13.3434   -5.6434   -2.1871 O   0  0  0  0  0  0
    9.2190   -7.3744   -2.1420 O   0  0  0  0  0  0
   10.4899   -5.0610    4.4399 O   0  0  0  0  0  0
   11.2269   -6.3116   -2.2104 N   0  0  0  0  0  0
    9.7294   -3.6719    6.9816 N   0  0  0  0  0  0
    8.8170   -5.9230    6.0326 N   0  0  0  0  0  0
   12.5101   -6.5195   -1.9592 C   0  0  0  0  0  0
   10.4369   -7.3487   -1.8992 C   0  0  0  0  0  0
   11.1775   -8.5282   -1.2535 C   0  0  0  0  0  0
   10.6255   -8.9699    0.1677 C   0  0  0  0  0  0
   10.6871   -7.9722    1.3074 C   0  0  0  0  0  0
   10.9968   -6.5620    1.1024 C   0  0  0  0  0  0
   10.9181   -5.6559    2.2021 C   0  0  0  0  0  0
   10.5497   -6.1220    3.5202 C   0  0  0  0  0  0
   10.3220   -7.5554    3.7262 C   0  0  0  0  0  0
   10.3863   -8.4720    2.6296 C   0  0  0  0  0  0
    9.9940   -3.6791    4.3326 C   0  0  0  0  0  0
   10.3288   -3.0705    5.7106 C   0  0  0  0  0  0
   10.0392   -2.7256    8.1508 C   0  0  0  0  0  0
    9.0262   -5.0952    7.1275 C   0  0  0  0  0  0
    8.2470   -7.1561    6.0947 C   0  0  0  0  0  0
    7.8010   -7.6986    7.3596 C   0  0  0  0  0  0
    7.9700   -6.9113    8.5436 C   0  0  0  0  0  0
    8.5766   -5.6142    8.4368 C   0  0  0  0  0  0
   10.8840   -5.4711   -2.5914 H   0  0  0  0  0  0
  1  8  1  0  0  0
  1 10  1  0  0  0
  2  8  2  0  0  0
  3  9  2  0  0  0
  4 15  1  0  0  0
  4 18  1  0  0  0
  5  8  1  0  0  0
  5  9  1  0  0  0
  5 26  1  0  0  0
  6 19  1  0  0  0
  6 20  1  0  0  0
  6 21  1  0  0  0
  7 21  2  0  0  0
  7 22  1  0  0  0
  9 10  1  0  0  0
 10 11  1  0  0  0
 11 12  1  0  0  0
 12 13  2  0  0  0
 12 17  1  0  0  0
 13 14  1  0  0  0
 14 15  2  0  0  0
 15 16  1  0  0  0
 16 17  2  0  0  0
 18 19  1  0  0  0
 21 25  1  0  0  0
 22 23  2  0  0  0
 23 24  1  0  0  0
 24 25  2  0  0  0
M  END
>  <CHROM.0>
-112.19854875,-179.78439992,-177.63222216,-179.96223355,173.44799400,-179.55867645

>  <CHROM.1>
39.61602853,-176.64557514,-170.39364213,-4.08254008,62.19987598,11.60875913
-60.48051905,10.41321108,-6.35549103,2.73944400,0.97802390,-1.04015052,-2.34908284

>  <FORMUL>
      BRL    C18 H19 N3 O3 S1

>  <HET>
 BRL  A   1      25

>  <HETNAM>
     BRL 2,4-THIAZOLIDIINEDIONE, 5-[[4-[2-(METHYL-2-PYRIDINYLAMI
   2 BRL NO)ETHOXY]PHENYL]METHYL]-(9CL)

>  <HETSYN>
     BRL BRL49653; ROSIGLITAZONE

>  <Name>
BRL.pdb

>  <RI>
1.22162e+07

>  <Rbt.Current_Directory>
/home/malgorzata/Desktop/rDOCK_IFD/Wyniki/13_ppar-gamma/IFD

>  <Rbt.Executable>
rbdock ($Id: //depot/dev/client3/rdock/2013.1/src/exe/rbdock.cxx#4 $)

>  <Rbt.Library>
libRbt.so (2013.1, Build901 2013/11/27)

>  <Rbt.Parameter_File>
/home/malgorzata/Desktop/rDock_2013.1_src/data/scripts/dock.prm

>  <Rbt.Receptor>
cavity.prm

>  <SCORE>
-21.5632

>  <SCORE.INTER>
-12.2905

>  <SCORE.INTER.CONST>
1

>  <SCORE.INTER.POLAR>
0

>  <SCORE.INTER.REPUL>
0

>  <SCORE.INTER.ROT>
7

>  <SCORE.INTER.VDW>
-24.6905

>  <SCORE.INTER.norm>
-0.491621

>  <SCORE.INTRA>
0.229426

>  <SCORE.INTRA.DIHEDRAL>
-0.134968

>  <SCORE.INTRA.DIHEDRAL.0>
5.55665

>  <SCORE.INTRA.POLAR>
0

>  <SCORE.INTRA.POLAR.0>
0

>  <SCORE.INTRA.REPUL>
0

>  <SCORE.INTRA.REPUL.0>
0

>  <SCORE.INTRA.VDW>
0.29691

>  <SCORE.INTRA.VDW.0>
-2.56587

>  <SCORE.INTRA.norm>
0.00917705

>  <SCORE.RESTR>
0

>  <SCORE.RESTR.CAVITY>
0

>  <SCORE.RESTR.norm>
0

>  <SCORE.SYSTEM>
-9.50209

>  <SCORE.SYSTEM.CONST>
0

>  <SCORE.SYSTEM.DIHEDRAL>
0.48993

>  <SCORE.SYSTEM.POLAR>
-2.20064

>  <SCORE.SYSTEM.VDW>
-2.2649

>  <SCORE.SYSTEM.norm>
-0.380084

>  <SCORE.heavy>
25

>  <SCORE.norm>
-0.862528

$$$$
BRL.pdb
  rDOCK(R)          3D
libRbt.so/2013.1/901 2013/11/27
 26 28  0  0  0  0  0  0  0  0999 V2000
   10.0871   -3.9876    7.1607 S   0  0  0  0  0  0
   10.6016   -3.1800    9.6561 O   0  0  0  0  0  0
    6.4726   -4.5547    8.6214 O   0  0  0  0  0  0
   10.1150   -7.5707    1.2387 O   0  0  0  0  0  0
    8.5114   -3.8595    9.3467 N   0  0  0  0  0  0
   12.0514   -7.2297   -0.9975 N   0  0  0  0  0  0
   14.1339   -5.6774   -1.2305 N   0  0  0  0  0  0
    9.7350   -3.6201    8.9016 C   0  0  0  0  0  0
    7.6802   -4.3491    8.4161 C   0  0  0  0  0  0
    8.3417   -4.5938    7.0525 C   0  0  0  0  0  0
    8.2211   -6.0790    6.5053 C   0  0  0  0  0  0
    8.7804   -6.3890    5.1309 C   0  0  0  0  0  0
    9.8534   -7.3532    4.9175 C   0  0  0  0  0  0
   10.2477   -7.6860    3.5869 C   0  0  0  0  0  0
    9.6065   -7.0673    2.4483 C   0  0  0  0  0  0
    8.5872   -6.0400    2.6817 C   0  0  0  0  0  0
    8.1749   -5.7062    4.0104 C   0  0  0  0  0  0
   10.9745   -8.7238    0.9247 C   0  0  0  0  0  0
   11.3358   -8.5075   -0.5598 C   0  0  0  0  0  0
   11.0446   -6.3541   -1.7577 C   0  0  0  0  0  0
   13.6021   -6.8974   -0.8347 C   0  0  0  0  0  0
   15.4401   -5.3243   -1.0955 C   0  0  0  0  0  0
   16.3945   -6.2413   -0.5111 C   0  0  0  0  0  0
   15.9370   -7.5277   -0.0795 C   0  0  0  0  0  0
   14.5499   -7.8630   -0.2388 C   0  0  0  0  0  0
    8.2367   -3.6929   10.2773 H   0  0  0  0  0  0
  1  8  1  0  0  0
  1 10  1  0  0  0
  2  8  2  0  0  0
  3  9  2  0  0  0
  4 15  1  0  0  0
  4 18  1  0  0  0
  5  8  1  0  0  0
  5  9  1  0  0  0
  5 26  1  0  0  0
  6 19  1  0  0  0
  6 20  1  0  0  0
  6 21  1  0  0  0
  7 21  2  0  0  0
  7 22  1  0  0  0
  9 10  1  0  0  0
 10 11  1  0  0  0
 11 12  1  0  0  0
 12 13  2  0  0  0
 12 17  1  0  0  0
 13 14  1  0  0  0
 14 15  2  0  0  0
 15 16  1  0  0  0
 16 17  2  0  0  0
 18 19  1  0  0  0
 21 25  1  0  0  0
 22 23  2  0  0  0
 23 24  1  0  0  0
 24 25  2  0  0  0
M  END
>  <CHROM.0>
-107.04275790,-177.73743471,178.27490752,59.67672998,178.95625560,-173.46110093

>  <CHROM.1>
11.90214645,-169.71035799,-107.43227654,-177.71092743,-58.83818886,118.77940469
58.69209677,10.74421544,-5.96889372,3.56839021,-2.09076382,-0.32215462,-2.04384286

>  <FORMUL>
      BRL    C18 H19 N3 O3 S1

>  <HET>
 BRL  A   1      25

>  <HETNAM>
     BRL 2,4-THIAZOLIDIINEDIONE, 5-[[4-[2-(METHYL-2-PYRIDINYLAMI
   2 BRL NO)ETHOXY]PHENYL]METHYL]-(9CL)

>  <HETSYN>
     BRL BRL49653; ROSIGLITAZONE

>  <Name>
BRL.pdb

>  <RI>
1.22162e+07

>  <Rbt.Current_Directory>
/home/malgorzata/Desktop/rDOCK_IFD/Wyniki/13_ppar-gamma/IFD

>  <Rbt.Executable>
rbdock ($Id: //depot/dev/client3/rdock/2013.1/src/exe/rbdock.cxx#4 $)

>  <Rbt.Library>
libRbt.so (2013.1, Build901 2013/11/27)

>  <Rbt.Parameter_File>
/home/malgorzata/Desktop/rDock_2013.1_src/data/scripts/dock.prm

>  <Rbt.Receptor>
cavity.prm

>  <SCORE>
-24.0021

>  <SCORE.INTER>
-14.8133

>  <SCORE.INTER.CONST>
1

>  <SCORE.INTER.POLAR>
0

>  <SCORE.INTER.REPUL>
0

>  <SCORE.INTER.ROT>
7

>  <SCORE.INTER.VDW>
-27.2133

>  <SCORE.INTER.norm>
-0.59253

>  <SCORE.INTRA>
0.0320059

>  <SCORE.INTRA.DIHEDRAL>
-1.7906

>  <SCORE.INTRA.DIHEDRAL.0>
5.55665

>  <SCORE.INTRA.POLAR>
0

>  <SCORE.INTRA.POLAR.0>
0

>  <SCORE.INTRA.REPUL>
0

>  <SCORE.INTRA.REPUL.0>
0

>  <SCORE.INTRA.VDW>
0.927304

>  <SCORE.INTRA.VDW.0>
-2.56587

>  <SCORE.INTRA.norm>
0.00128024

>  <SCORE.RESTR>
0

>  <SCORE.RESTR.CAVITY>
0

>  <SCORE.RESTR.norm>
0

>  <SCORE.SYSTEM>
-9.22088

>  <SCORE.SYSTEM.CONST>
0

>  <SCORE.SYSTEM.DIHEDRAL>
0.50391

>  <SCORE.SYSTEM.POLAR>
-2.13131

>  <SCORE.SYSTEM.VDW>
-2.22637

>  <SCORE.SYSTEM.norm>
-0.368835

>  <SCORE.heavy>
25

>  <SCORE.norm>
-0.960086

$$$$
BRL.pdb
  rDOCK(R)          3D
libRbt.so/2013.1/901 2013/11/27
 26 28  0  0  0  0  0  0  0  0999 V2000
    9.1991   -7.7352    2.3723 S   0  0  0  0  0  0
    9.7128   -9.8956    0.8848 O   0  0  0  0  0  0
   11.3474   -5.9334   -0.3950 O   0  0  0  0  0  0
    9.1416   -3.7231    7.8668 O   0  0  0  0  0  0
   10.6389   -8.0330    0.1103 N   0  0  0  0  0  0
   10.8442   -3.1500   10.4295 N   0  0  0  0  0  0
   11.2417   -1.7174    8.2869 N   0  0  0  0  0  0
    9.8988   -8.6842    0.9940 C   0  0  0  0  0  0
   10.7641   -6.7232    0.3657 C   0  0  0  0  0  0
   10.0823   -6.2707    1.6646 C   0  0  0  0  0  0
   11.0360   -5.5443    2.7050 C   0  0  0  0  0  0
   10.4446   -5.0737    4.0191 C   0  0  0  0  0  0
   10.1788   -5.9790    5.1310 C   0  0  0  0  0  0
    9.7359   -5.4500    6.3803 C   0  0  0  0  0  0
    9.5331   -4.0289    6.5521 C   0  0  0  0  0  0
    9.7256   -3.1420    5.4009 C   0  0  0  0  0  0
   10.1808   -3.6586    4.1467 C   0  0  0  0  0  0
    9.0178   -4.5427    9.0833 C   0  0  0  0  0  0
    9.3877   -3.5614   10.2154 C   0  0  0  0  0  0
   11.3160   -3.7387   11.7670 C   0  0  0  0  0  0
   11.7050   -2.1668    9.5162 C   0  0  0  0  0  0
   11.9155   -0.8602    7.4743 C   0  0  0  0  0  0
   13.2134   -0.3485    7.8576 C   0  0  0  0  0  0
   13.7747   -0.7636    9.1078 C   0  0  0  0  0  0
   13.0320   -1.6697    9.9380 C   0  0  0  0  0  0
   11.0593   -8.4713   -0.6644 H   0  0  0  0  0  0
  1  8  1  0  0  0
  1 10  1  0  0  0
  2  8  2  0  0  0
  3  9  2  0  0  0
  4 15  1  0  0  0
  4 18  1  0  0  0
  5  8  1  0  0  0
  5  9  1  0  0  0
  5 26  1  0  0  0
  6 19  1  0  0  0
  6 20  1  0  0  0
  6 21  1  0  0  0
  7 21  2  0  0  0
  7 22  1  0  0  0
  9 10  1  0  0  0
 10 11  1  0  0  0
 11 12  1  0  0  0
 12 13  2  0  0  0
 12 17  1  0  0  0
 13 14  1  0  0  0
 14 15  2  0  0  0
 15 16  1  0  0  0
 16 17  2  0  0  0
 18 19  1  0  0  0
 21 25  1  0  0  0
 22 23  2  0  0  0
 23 24  1  0  0  0
 24 25  2  0  0  0
M  END
>  <CHROM.0>
-107.88679642,179.51807159,60.67056163,-64.27521848,23.08810641,-18.06264771

>  <CHROM.1>
5.95628903,146.92410686,-112.34395298,-9.32261218,-55.11359560,78.27721455
-74.06912540,10.59043943,-4.71284592,5.48179803,1.78736358,-0.91751432,-1.96199113

>  <FORMUL>
      BRL    C18 H19 N3 O3 S1

>  <HET>
 BRL  A   1      25

>  <HETNAM>
     BRL 2,4-THIAZOLIDIINEDIONE, 5-[[4-[2-(METHYL-2-PYRIDINYLAMI
   2 BRL NO)ETHOXY]PHENYL]METHYL]-(9CL)

>  <HETSYN>
     BRL BRL49653; ROSIGLITAZONE

>  <Name>
BRL.pdb

>  <RI>
1.22162e+07

>  <Rbt.Current_Directory>
/home/malgorzata/Desktop/rDOCK_IFD/Wyniki/13_ppar-gamma/IFD

>  <Rbt.Executable>
rbdock ($Id: //depot/dev/client3/rdock/2013.1/src/exe/rbdock.cxx#4 $)

>  <Rbt.Library>
libRbt.so (2013.1, Build901 2013/11/27)

>  <Rbt.Parameter_File>
/home/malgorzata/Desktop/rDock_2013.1_src/data/scripts/dock.prm

>  <Rbt.Receptor>
cavity.prm

>  <SCORE>
-18.1891

>  <SCORE.INTER>
-9.1665

>  <SCORE.INTER.CONST>
1

>  <SCORE.INTER.POLAR>
0

>  <SCORE.INTER.REPUL>
0

>  <SCORE.INTER.ROT>
7

>  <SCORE.INTER.VDW>
-21.5665

>  <SCORE.INTER.norm>
-0.36666

>  <SCORE.INTRA>
1.71644

>  <SCORE.INTRA.DIHEDRAL>
2.64048

>  <SCORE.INTRA.DIHEDRAL.0>
5.55665

>  <SCORE.INTRA.POLAR>
0

>  <SCORE.INTRA.POLAR.0>
0

>  <SCORE.INTRA.REPUL>
0.0214029

>  <SCORE.INTRA.REPUL.0>
0

>  <SCORE.INTRA.VDW>
0.289185

>  <SCORE.INTRA.VDW.0>
-2.56587

>  <SCORE.INTRA.norm>
0.0686575

>  <SCORE.RESTR>
0

>  <SCORE.RESTR.CAVITY>
0

>  <SCORE.RESTR.norm>
0

>  <SCORE.SYSTEM>
-10.739

>  <SCORE.SYSTEM.CONST>
0

>  <SCORE.SYSTEM.DIHEDRAL>
1.64944

>  <SCORE.SYSTEM.POLAR>
-2.68879

>  <SCORE.SYSTEM.VDW>
-2.42185

>  <SCORE.SYSTEM.norm>
-0.429561

>  <SCORE.heavy>
25

>  <SCORE.norm>
-0.727564

$$$$
BRL.pdb
  rDOCK(R)          3D
libRbt.so/2013.1/901 2013/11/27
 26 28  0  0  0  0  0  0  0  0999 V2000
   14.5945   -6.6111    0.2627 S   0  0  0  0  0  0
   14.0918   -4.0568    0.8683 O   0  0  0  0  0  0
   12.8257   -5.6374   -3.1201 O   0  0  0  0  0  0
    8.2178   -7.4936    2.0017 O   0  0  0  0  0  0
   13.3560   -4.6646   -1.1356 N   0  0  0  0  0  0
    9.2493   -5.1739    4.8593 N   0  0  0  0  0  0
    8.6373   -4.4346    7.2841 N   0  0  0  0  0  0
   13.9700   -4.9275    0.0075 C   0  0  0  0  0  0
   13.2869   -5.7119   -1.9692 C   0  0  0  0  0  0
   13.8711   -7.0097   -1.3936 C   0  0  0  0  0  0
   12.8703   -8.2416   -1.3664 C   0  0  0  0  0  0
   11.6137   -8.1316   -0.5257 C   0  0  0  0  0  0
   11.5367   -8.6298    0.8427 C   0  0  0  0  0  0
   10.3634   -8.3843    1.6173 C   0  0  0  0  0  0
    9.2443   -7.6609    1.0565 C   0  0  0  0  0  0
    9.3052   -7.2390   -0.3461 C   0  0  0  0  0  0
   10.4803   -7.4687   -1.1293 C   0  0  0  0  0  0
    8.2322   -7.1840    3.4408 C   0  0  0  0  0  0
    8.9526   -5.8209    3.5066 C   0  0  0  0  0  0
   10.7272   -4.7567    4.8761 C   0  0  0  0  0  0
    8.2610   -5.0649    6.1056 C   0  0  0  0  0  0
    7.8338   -4.2869    8.3712 C   0  0  0  0  0  0
    6.4831   -4.8054    8.3648 C   0  0  0  0  0  0
    6.0101   -5.4781    7.1926 C   0  0  0  0  0  0
    6.8888   -5.6136    6.0650 C   0  0  0  0  0  0
   12.9838   -3.7797   -1.3536 H   0  0  0  0  0  0
  1  8  1  0  0  0
  1 10  1  0  0  0
  2  8  2  0  0  0
  3  9  2  0  0  0
  4 15  1  0  0  0
  4 18  1  0  0  0
  5  8  1  0  0  0
  5  9  1  0  0  0
  5 26  1  0  0  0
  6 19  1  0  0  0
  6 20  1  0  0  0
  6 21  1  0  0  0
  7 21  2  0  0  0
  7 22  1  0  0  0
  9 10  1  0  0  0
 10 11  1  0  0  0
 11 12  1  0  0  0
 12 13  2  0  0  0
 12 17  1  0  0  0
 13 14  1  0  0  0
 14 15  2  0  0  0
 15 16  1  0  0  0
 16 17  2  0  0  0
 18 19  1  0  0  0
 21 25  1  0  0  0
 22 23  2  0  0  0
 23 24  1  0  0  0
 24 25  2  0  0  0
M  END
>  <CHROM.0>
-179.08636339,65.72163126,61.22076180,178.18897124,22.74288521,179.81932636

>  <CHROM.1>
39.84416706,59.51862007,130.45799205,-179.09957391,62.11361868,-94.47879544
-176.44579907,10.68284428,-6.17059154,2.09871891,-0.83842206,0.51017415,0.99529607

>  <FORMUL>
      BRL    C18 H19 N3 O3 S1

>  <HET>
 BRL  A   1      25

>  <HETNAM>
     BRL 2,4-THIAZOLIDIINEDIONE, 5-[[4-[2-(METHYL-2-PYRIDINYLAMI
   2 BRL NO)ETHOXY]PHENYL]METHYL]-(9CL)

>  <HETSYN>
     BRL BRL49653; ROSIGLITAZONE

>  <Name>
BRL.pdb

>  <RI>
1.22162e+07

>  <Rbt.Current_Directory>
/home/malgorzata/Desktop/rDOCK_IFD/Wyniki/13_ppar-gamma/IFD

>  <Rbt.Executable>
rbdock ($Id: //depot/dev/client3/rdock/2013.1/src/exe/rbdock.cxx#4 $)

>  <Rbt.Library>
libRbt.so (2013.1, Build901 2013/11/27)

>  <Rbt.Parameter_File>
/home/malgorzata/Desktop/rDock_2013.1_src/data/scripts/dock.prm

>  <Rbt.Receptor>
cavity.prm

>  <SCORE>
-26.3769

>  <SCORE.INTER>
-15.16

>  <SCORE.INTER.CONST>
1

>  <SCORE.INTER.POLAR>
-1.23003

>  <SCORE.INTER.REPUL>
0.0203097

>  <SCORE.INTER.ROT>
7

>  <SCORE.INTER.VDW>
-23.4794

>  <SCORE.INTER.norm>
-0.6064

>  <SCORE.INTRA>
-0.206596

>  <SCORE.INTRA.DIHEDRAL>
-0.494209

>  <SCORE.INTRA.DIHEDRAL.0>
5.55665

>  <SCORE.INTRA.POLAR>
0

>  <SCORE.INTRA.POLAR.0>
0

>  <SCORE.INTRA.REPUL>
0

>  <SCORE.INTRA.REPUL.0>
0

>  <SCORE.INTRA.VDW>
0.0405082

>  <SCORE.INTRA.VDW.0>
-2.56587

>  <SCORE.INTRA.norm>
-0.00826385

>  <SCORE.RESTR>
0

>  <SCORE.RESTR.CAVITY>
0

>  <SCORE.RESTR.norm>
0

>  <SCORE.SYSTEM>
-11.0103

>  <SCORE.SYSTEM.CONST>
0

>  <SCORE.SYSTEM.DIHEDRAL>
1.29526

>  <SCORE.SYSTEM.POLAR>
-2.70573

>  <SCORE.SYSTEM.VDW>
-2.45847

>  <SCORE.SYSTEM.norm>
-0.440412

>  <SCORE.heavy>
25

>  <SCORE.norm>
-1.05508

$$$$
BRL.pdb
  rDOCK(R)          3D
libRbt.so/2013.1/901 2013/11/27
 26 28  0  0  0  0  0  0  0  0999 V2000
   14.3193   -6.5866   -0.2566 S   0  0  0  0  0  0
   14.5507   -3.9396    0.0325 O   0  0  0  0  0  0
   11.3038   -5.5679   -2.5781 O   0  0  0  0  0  0
    9.6941   -6.5624    4.6187 O   0  0  0  0  0  0
   12.8606   -4.5550   -1.2679 N   0  0  0  0  0  0
    9.0628   -4.4295    7.7281 N   0  0  0  0  0  0
   10.1868   -2.8025    9.4282 N   0  0  0  0  0  0
   13.9033   -4.8385   -0.5030 C   0  0  0  0  0  0
   12.2459   -5.6345   -1.7713 C   0  0  0  0  0  0
   12.8379   -6.9695   -1.2980 C   0  0  0  0  0  0
   11.8060   -7.9487   -0.5935 C   0  0  0  0  0  0
   11.3418   -7.6182    0.8112 C   0  0  0  0  0  0
   11.4539   -6.2811    1.3825 C   0  0  0  0  0  0
   10.8864   -6.0123    2.6641 C   0  0  0  0  0  0
   10.2149   -7.0534    3.4093 C   0  0  0  0  0  0
   10.1832   -8.4111    2.8573 C   0  0  0  0  0  0
   10.7381   -8.6907    1.5686 C   0  0  0  0  0  0
    9.9742   -5.3474    5.4013 C   0  0  0  0  0  0
    9.0971   -5.5214    6.6590 C   0  0  0  0  0  0
    7.5932   -4.1227    8.0515 C   0  0  0  0  0  0
   10.3086   -3.6298    8.3197 C   0  0  0  0  0  0
   11.2139   -2.1147    9.9948 C   0  0  0  0  0  0
   12.5507   -2.2044    9.4485 C   0  0  0  0  0  0
   12.7701   -3.0300    8.2993 C   0  0  0  0  0  0
   11.6599   -3.7408    7.7302 C   0  0  0  0  0  0
   12.5635   -3.6344   -1.4505 H   0  0  0  0  0  0
  1  8  1  0  0  0
  1 10  1  0  0  0
  2  8  2  0  0  0
  3  9  2  0  0  0
  4 15  1  0  0  0
  4 18  1  0  0  0
  5  8  1  0  0  0
  5  9  1  0  0  0
  5 26  1  0  0  0
  6 19  1  0  0  0
  6 20  1  0  0  0
  6 21  1  0  0  0
  7 21  2  0  0  0
  7 22  1  0  0  0
  9 10  1  0  0  0
 10 11  1  0  0  0
 11 12  1  0  0  0
 12 13  2  0  0  0
 12 17  1  0  0  0
 13 14  1  0  0  0
 14 15  2  0  0  0
 15 16  1  0  0  0
 16 17  2  0  0  0
 18 19  1  0  0  0
 21 25  1  0  0  0
 22 23  2  0  0  0
 23 24  1  0  0  0
 24 25  2  0  0  0
M  END
>  <CHROM.0>
-154.09319577,-178.48185927,67.94159172,-178.55828401,174.69533709,-5.53557483

>  <CHROM.1>
-17.63675714,-176.32321767,130.76802181,-170.13788996,50.71332789,19.46577214
-177.96085589,11.44887657,-5.38958634,3.37535319,-1.26617370,0.66414517,1.09239135

>  <FORMUL>
      BRL    C18 H19 N3 O3 S1

>  <HET>
 BRL  A   1      25

>  <HETNAM>
     BRL 2,4-THIAZOLIDIINEDIONE, 5-[[4-[2-(METHYL-2-PYRIDINYLAMI
   2 BRL NO)ETHOXY]PHENYL]METHYL]-(9CL)

>  <HETSYN>
     BRL BRL49653; ROSIGLITAZONE

>  <Name>
BRL.pdb

>  <RI>
1.22162e+07

>  <Rbt.Current_Directory>
/home/malgorzata/Desktop/rDOCK_IFD/Wyniki/13_ppar-gamma/IFD

>  <Rbt.Executable>
rbdock ($Id: //depot/dev/client3/rdock/2013.1/src/exe/rbdock.cxx#4 $)

>  <Rbt.Library>
libRbt.so (2013.1, Build901 2013/11/27)

>  <Rbt.Parameter_File>
/home/malgorzata/Desktop/rDock_2013.1_src/data/scripts/dock.prm

>  <Rbt.Receptor>
cavity.prm

>  <SCORE>
-25.3326

>  <SCORE.INTER>
-14.7129

>  <SCORE.INTER.CONST>
1

>  <SCORE.INTER.POLAR>
-0.405409

>  <SCORE.INTER.REPUL>
0.000497328

>  <SCORE.INTER.ROT>
7

>  <SCORE.INTER.VDW>
-25.737

>  <SCORE.INTER.norm>
-0.588516

>  <SCORE.INTRA>
0.249502

>  <SCORE.INTRA.DIHEDRAL>
-1.09716

>  <SCORE.INTRA.DIHEDRAL.0>
5.55665

>  <SCORE.INTRA.POLAR>
0

>  <SCORE.INTRA.POLAR.0>
0

>  <SCORE.INTRA.REPUL>
0

>  <SCORE.INTRA.REPUL.0>
0

>  <SCORE.INTRA.VDW>
0.798084

>  <SCORE.INTRA.VDW.0>
-2.56587

>  <SCORE.INTRA.norm>
0.00998008

>  <SCORE.RESTR>
0

>  <SCORE.RESTR.CAVITY>
0

>  <SCORE.RESTR.norm>
0

>  <SCORE.SYSTEM>
-10.8692

>  <SCORE.SYSTEM.CONST>
0

>  <SCORE.SYSTEM.DIHEDRAL>
0.808553

>  <SCORE.SYSTEM.POLAR>
-2.66359

>  <SCORE.SYSTEM.VDW>
-2.2173

>  <SCORE.SYSTEM.norm>
-0.434769

>  <SCORE.heavy>
25

>  <SCORE.norm>
-1.0133

$$$$
BRL.pdb
  rDOCK(R)          3D
libRbt.so/2013.1/901 2013/11/27
 26 28  0  0  0  0  0  0  0  0999 V2000
   10.8591   -4.2854   11.7573 S   0  0  0  0  0  0
   11.2681   -2.1591   13.3244 O   0  0  0  0  0  0
   11.1026   -1.5946    8.8902 O   0  0  0  0  0  0
    9.1278   -4.3765    3.5014 O   0  0  0  0  0  0
   11.1799   -1.6741   11.1603 N   0  0  0  0  0  0
   10.4393   -6.7957    2.1364 N   0  0  0  0  0  0
    9.7813   -8.7932    0.5943 N   0  0  0  0  0  0
   11.1383   -2.5394   12.1615 C   0  0  0  0  0  0
   11.0101   -2.2308    9.9529 C   0  0  0  0  0  0
   10.7339   -3.7403    9.9929 C   0  0  0  0  0  0
    9.3880   -4.1951    9.2849 C   0  0  0  0  0  0
    9.3766   -4.3281    7.7748 C   0  0  0  0  0  0
    8.2839   -4.9657    7.0496 C   0  0  0  0  0  0
    8.2799   -4.9479    5.6225 C   0  0  0  0  0  0
    9.3538   -4.3186    4.8872 C   0  0  0  0  0  0
   10.4851   -3.7549    5.6299 C   0  0  0  0  0  0
   10.4951   -3.7560    7.0606 C   0  0  0  0  0  0
   10.0109   -4.1761    2.3408 C   0  0  0  0  0  0
   10.9664   -5.3863    2.4046 C   0  0  0  0  0  0
   10.2688   -7.5077    3.4864 C   0  0  0  0  0  0
   10.2290   -7.4843    0.7139 C   0  0  0  0  0  0
    9.5583   -9.4279   -0.5875 C   0  0  0  0  0  0
    9.7899   -8.7485   -1.8437 C   0  0  0  0  0  0
   10.2598   -7.3961   -1.8179 C   0  0  0  0  0  0
   10.4830   -6.7604   -0.5499 C   0  0  0  0  0  0
   11.3225   -0.7088   11.2909 H   0  0  0  0  0  0
  1  8  1  0  0  0
  1 10  1  0  0  0
  2  8  2  0  0  0
  3  9  2  0  0  0
  4 15  1  0  0  0
  4 18  1  0  0  0
  5  8  1  0  0  0
  5  9  1  0  0  0
  5 26  1  0  0  0
  6 19  1  0  0  0
  6 20  1  0  0  0
  6 21  1  0  0  0
  7 21  2  0  0  0
  7 22  1  0  0  0
  9 10  1  0  0  0
 10 11  1  0  0  0
 11 12  1  0  0  0
 12 13  2  0  0  0
 12 17  1  0  0  0
 13 14  1  0  0  0
 14 15  2  0  0  0
 15 16  1  0  0  0
 16 17  2  0  0  0
 18 19  1  0  0  0
 21 25  1  0  0  0
 22 23  2  0  0  0
 23 24  1  0  0  0
 24 25  2  0  0  0
M  END
>  <CHROM.0>
-109.16243183,179.78858825,62.42352236,-176.97924281,174.91256868,-6.51134299

>  <CHROM.1>
-163.91423679,68.33710892,-102.27841404,177.88802976,-155.60575401,168.51835093
68.32764463,10.20620219,-4.93345993,5.78477312,1.02086433,1.44191914,1.71966579

>  <FORMUL>
      BRL    C18 H19 N3 O3 S1

>  <HET>
 BRL  A   1      25

>  <HETNAM>
     BRL 2,4-THIAZOLIDIINEDIONE, 5-[[4-[2-(METHYL-2-PYRIDINYLAMI
   2 BRL NO)ETHOXY]PHENYL]METHYL]-(9CL)

>  <HETSYN>
     BRL BRL49653; ROSIGLITAZONE

>  <Name>
BRL.pdb

>  <RI>
1.22162e+07

>  <Rbt.Current_Directory>
/home/malgorzata/Desktop/rDOCK_IFD/Wyniki/13_ppar-gamma/IFD

>  <Rbt.Executable>
rbdock ($Id: //depot/dev/client3/rdock/2013.1/src/exe/rbdock.cxx#4 $)

>  <Rbt.Library>
libRbt.so (2013.1, Build901 2013/11/27)

>  <Rbt.Parameter_File>
/home/malgorzata/Desktop/rDock_2013.1_src/data/scripts/dock.prm

>  <Rbt.Receptor>
cavity.prm

>  <SCORE>
-17.6772

>  <SCORE.INTER>
-7.16411

>  <SCORE.INTER.CONST>
1

>  <SCORE.INTER.POLAR>
0

>  <SCORE.INTER.REPUL>
0

>  <SCORE.INTER.ROT>
7

>  <SCORE.INTER.VDW>
-19.5641

>  <SCORE.INTER.norm>
-0.286564

>  <SCORE.INTRA>
0.560835

>  <SCORE.INTRA.DIHEDRAL>
0.177204

>  <SCORE.INTRA.DIHEDRAL.0>
5.55665

>  <SCORE.INTRA.POLAR>
0

>  <SCORE.INTRA.POLAR.0>
0

>  <SCORE.INTRA.REPUL>
0

>  <SCORE.INTRA.REPUL.0>
0

>  <SCORE.INTRA.VDW>
0.472233

>  <SCORE.INTRA.VDW.0>
-2.56587

>  <SCORE.INTRA.norm>
0.0224334

>  <SCORE.RESTR>
0

>  <SCORE.RESTR.CAVITY>
0

>  <SCORE.RESTR.norm>
0

>  <SCORE.SYSTEM>
-11.0739

>  <SCORE.SYSTEM.CONST>
0

>  <SCORE.SYSTEM.DIHEDRAL>
0.549695

>  <SCORE.SYSTEM.POLAR>
-2.69831

>  <SCORE.SYSTEM.VDW>
-2.17453

>  <SCORE.SYSTEM.norm>
-0.442957

>  <SCORE.heavy>
25

>  <SCORE.norm>
-0.707088

$$$$
BRL.pdb
  rDOCK(R)          3D
libRbt.so/2013.1/901 2013/11/27
 26 28  0  0  0  0  0  0  0  0999 V2000
   13.0809   -4.8853    1.0608 S   0  0  0  0  0  0
   14.1171   -3.8136   -1.1577 O   0  0  0  0  0  0
   12.8311   -8.0976   -1.2060 O   0  0  0  0  0  0
    9.3382   -5.0796    6.2960 O   0  0  0  0  0  0
   13.5045   -5.9345   -1.3882 N   0  0  0  0  0  0
    8.2097   -3.4388    8.3902 N   0  0  0  0  0  0
   10.1843   -2.4675    6.9908 N   0  0  0  0  0  0
   13.6413   -4.8350   -0.6635 C   0  0  0  0  0  0
   12.9597   -6.9614   -0.7210 C   0  0  0  0  0  0
   12.5463   -6.6238    0.7184 C   0  0  0  0  0  0
   11.0196   -6.8943    1.0587 C   0  0  0  0  0  0
   10.4831   -6.4185    2.3943 C   0  0  0  0  0  0
   10.1809   -7.3312    3.4909 C   0  0  0  0  0  0
    9.7952   -6.8049    4.7601 C   0  0  0  0  0  0
    9.6856   -5.3784    4.9674 C   0  0  0  0  0  0
    9.9127   -4.4785    3.8327 C   0  0  0  0  0  0
   10.3115   -4.9931    2.5586 C   0  0  0  0  0  0
    8.6322   -5.8464    7.3355 C   0  0  0  0  0  0
    8.6427   -4.8958    8.5511 C   0  0  0  0  0  0
    6.9151   -3.2333    9.1903 C   0  0  0  0  0  0
    8.8806   -2.3391    7.4509 C   0  0  0  0  0  0
   10.8040   -1.5791    6.1688 C   0  0  0  0  0  0
   10.1127   -0.3938    5.7101 C   0  0  0  0  0  0
    8.7646   -0.1741    6.1400 C   0  0  0  0  0  0
    8.1449   -1.1357    7.0078 C   0  0  0  0  0  0
   13.7783   -5.9925   -2.3321 H   0  0  0  0  0  0
  1  8  1  0  0  0
  1 10  1  0  0  0
  2  8  2  0  0  0
  3  9  2  0  0  0
  4 15  1  0  0  0
  4 18  1  0  0  0
  5  8  1  0  0  0
  5  9  1  0  0  0
  5 26  1  0  0  0
  6 19  1  0  0  0
  6 20  1  0  0  0
  6 21  1  0  0  0
  7 21  2  0  0  0
  7 22  1  0  0  0
  9 10  1  0  0  0
 10 11  1  0  0  0
 11 12  1  0  0  0
 12 13  2  0  0  0
 12 17  1  0  0  0
 13 14  1  0  0  0
 14 15  2  0  0  0
 15 16  1  0  0  0
 16 17  2  0  0  0
 18 19  1  0  0  0
 21 25  1  0  0  0
 22 23  2  0  0  0
 23 24  1  0  0  0
 24 25  2  0  0  0
M  END
>  <CHROM.0>
-141.01424863,-179.30492571,-55.41302856,62.22070192,15.08188237,-178.32242173

>  <CHROM.1>
-25.04509432,178.85229044,113.72797816,-20.83578954,-47.50111540,-106.51206461
49.01943578,10.65684448,-4.59996006,3.78682728,-0.59179976,0.98715453,0.29934139

>  <FORMUL>
      BRL    C18 H19 N3 O3 S1

>  <HET>
 BRL  A   1      25

>  <HETNAM>
     BRL 2,4-THIAZOLIDIINEDIONE, 5-[[4-[2-(METHYL-2-PYRIDINYLAMI
   2 BRL NO)ETHOXY]PHENYL]METHYL]-(9CL)

>  <HETSYN>
     BRL BRL49653; ROSIGLITAZONE

>  <Name>
BRL.pdb

>  <RI>
1.22162e+07

>  <Rbt.Current_Directory>
/home/malgorzata/Desktop/rDOCK_IFD/Wyniki/13_ppar-gamma/IFD

>  <Rbt.Executable>
rbdock ($Id: //depot/dev/client3/rdock/2013.1/src/exe/rbdock.cxx#4 $)

>  <Rbt.Library>
libRbt.so (2013.1, Build901 2013/11/27)

>  <Rbt.Parameter_File>
/home/malgorzata/Desktop/rDock_2013.1_src/data/scripts/dock.prm

>  <Rbt.Receptor>
cavity.prm

>  <SCORE>
-20.0678

>  <SCORE.INTER>
-12.27

>  <SCORE.INTER.CONST>
1

>  <SCORE.INTER.POLAR>
-0.765652

>  <SCORE.INTER.REPUL>
0

>  <SCORE.INTER.ROT>
7

>  <SCORE.INTER.VDW>
-22.0668

>  <SCORE.INTER.norm>
-0.4908

>  <SCORE.INTRA>
0.646925

>  <SCORE.INTRA.DIHEDRAL>
0.855105

>  <SCORE.INTRA.DIHEDRAL.0>
5.55665

>  <SCORE.INTRA.POLAR>
0

>  <SCORE.INTRA.POLAR.0>
0

>  <SCORE.INTRA.REPUL>
0.00991563

>  <SCORE.INTRA.REPUL.0>
0

>  <SCORE.INTRA.VDW>
0.169795

>  <SCORE.INTRA.VDW.0>
-2.56587

>  <SCORE.INTRA.norm>
0.025877

>  <SCORE.RESTR>
0

>  <SCORE.RESTR.CAVITY>
0

>  <SCORE.RESTR.norm>
0

>  <SCORE.SYSTEM>
-8.4447

>  <SCORE.SYSTEM.CONST>
0

>  <SCORE.SYSTEM.DIHEDRAL>
0.848274

>  <SCORE.SYSTEM.POLAR>
-2.13131

>  <SCORE.SYSTEM.REPUL>
0.0403219

>  <SCORE.SYSTEM.VDW>
-1.82397

>  <SCORE.SYSTEM.norm>
-0.337788

>  <SCORE.heavy>
25

>  <SCORE.norm>
-0.802711

$$$$
BRL.pdb
  rDOCK(R)          3D
libRbt.so/2013.1/901 2013/11/27
 26 28  0  0  0  0  0  0  0  0999 V2000
   12.3497   -8.4696   -0.0739 S   0  0  0  0  0  0
   13.0419   -5.9933   -0.8038 O   0  0  0  0  0  0
    9.0717   -7.6093   -2.0825 O   0  0  0  0  0  0
    8.6601   -5.9412    5.1543 O   0  0  0  0  0  0
   11.0241   -6.6020   -1.4998 N   0  0  0  0  0  0
   11.0136   -3.2841    6.5392 N   0  0  0  0  0  0
   11.3738   -0.7226    6.8707 N   0  0  0  0  0  0
   12.1593   -6.8485   -0.8648 C   0  0  0  0  0  0
   10.1529   -7.6203   -1.4713 C   0  0  0  0  0  0
   10.6276   -8.8274   -0.6502 C   0  0  0  0  0  0
    9.6491   -9.2702    0.5187 C   0  0  0  0  0  0
    9.4551   -8.3301    1.6920 C   0  0  0  0  0  0
    8.3451   -7.3875    1.7693 C   0  0  0  0  0  0
    8.1543   -6.6190    2.9567 C   0  0  0  0  0  0
    9.0572   -6.7527    4.0779 C   0  0  0  0  0  0
   10.2147   -7.6435    3.9524 C   0  0  0  0  0  0
   10.4102   -8.4280    2.7720 C   0  0  0  0  0  0
    8.9118   -4.5277    5.4795 C   0  0  0  0  0  0
   10.4104   -4.5060    5.8468 C   0  0  0  0  0  0
   11.8183   -3.7709    7.7532 C   0  0  0  0  0  0
   10.7557   -1.7534    6.1756 C   0  0  0  0  0  0
   11.2153    0.5992    6.5936 C   0  0  0  0  0  0
   10.3513    1.0273    5.5149 C   0  0  0  0  0  0
    9.6657    0.0323    4.7465 C   0  0  0  0  0  0
    9.8595   -1.3532    5.0699 C   0  0  0  0  0  0
   10.8366   -5.7479   -1.9521 H   0  0  0  0  0  0
  1  8  1  0  0  0
  1 10  1  0  0  0
  2  8  2  0  0  0
  3  9  2  0  0  0
  4 15  1  0  0  0
  4 18  1  0  0  0
  5  8  1  0  0  0
  5  9  1  0  0  0
  5 26  1  0  0  0
  6 19  1  0  0  0
  6 20  1  0  0  0
  6 21  1  0  0  0
  7 21  2  0  0  0
  7 22  1  0  0  0
  9 10  1  0  0  0
 10 11  1  0  0  0
 11 12  1  0  0  0
 12 13  2  0  0  0
 12 17  1  0  0  0
 13 14  1  0  0  0
 14 15  2  0  0  0
 15 16  1  0  0  0
 16 17  2  0  0  0
 18 19  1  0  0  0
 21 25  1  0  0  0
 22 23  2  0  0  0
 23 24  1  0  0  0
 24 25  2  0  0  0
M  END
>  <CHROM.0>
148.37297780,179.09884399,59.79103371,-179.83738375,173.90462600,178.04360880

>  <CHROM.1>
-85.26762666,-70.39343332,130.73035723,-179.32855206,57.69291977,95.52512340
-166.70461022,10.42854934,-5.40133371,2.86197360,-1.53053785,1.11283565,0.75283870

>  <FORMUL>
      BRL    C18 H19 N3 O3 S1

>  <HET>
 BRL  A   1      25

>  <HETNAM>
     BRL 2,4-THIAZOLIDIINEDIONE, 5-[[4-[2-(METHYL-2-PYRIDINYLAMI
   2 BRL NO)ETHOXY]PHENYL]METHYL]-(9CL)

>  <HETSYN>
     BRL BRL49653; ROSIGLITAZONE

>  <Name>
BRL.pdb

>  <RI>
1.22162e+07

>  <Rbt.Current_Directory>
/home/malgorzata/Desktop/rDOCK_IFD/Wyniki/13_ppar-gamma/IFD

>  <Rbt.Executable>
rbdock ($Id: //depot/dev/client3/rdock/2013.1/src/exe/rbdock.cxx#4 $)

>  <Rbt.Library>
libRbt.so (2013.1, Build901 2013/11/27)

>  <Rbt.Parameter_File>
/home/malgorzata/Desktop/rDock_2013.1_src/data/scripts/dock.prm

>  <Rbt.Receptor>
cavity.prm

>  <SCORE>
-21.0015

>  <SCORE.INTER>
-11.5594

>  <SCORE.INTER.CONST>
1

>  <SCORE.INTER.POLAR>
0

>  <SCORE.INTER.REPUL>
0

>  <SCORE.INTER.ROT>
7

>  <SCORE.INTER.VDW>
-23.9594

>  <SCORE.INTER.norm>
-0.462377

>  <SCORE.INTRA>
1.52067

>  <SCORE.INTRA.DIHEDRAL>
3.39705

>  <SCORE.INTRA.DIHEDRAL.0>
5.55665

>  <SCORE.INTRA.POLAR>
0

>  <SCORE.INTRA.POLAR.0>
0

>  <SCORE.INTRA.REPUL>
0

>  <SCORE.INTRA.REPUL.0>
0

>  <SCORE.INTRA.VDW>
-0.177856

>  <SCORE.INTRA.VDW.0>
-2.56587

>  <SCORE.INTRA.norm>
0.0608267

>  <SCORE.RESTR>
0

>  <SCORE.RESTR.CAVITY>
0

>  <SCORE.RESTR.norm>
0

>  <SCORE.SYSTEM>
-10.9628

>  <SCORE.SYSTEM.CONST>
0

>  <SCORE.SYSTEM.DIHEDRAL>
0.462934

>  <SCORE.SYSTEM.POLAR>
-2.71445

>  <SCORE.SYSTEM.VDW>
-1.96509

>  <SCORE.SYSTEM.norm>
-0.43851

>  <SCORE.heavy>
25

>  <SCORE.norm>
-0.840061

$$$$
BRL.pdb
  rDOCK(R)          3D
libRbt.so/2013.1/901 2013/11/27
 26 28  0  0  0  0  0  0  0  0999 V2000
    9.9324   -9.2973    0.5933 S   0  0  0  0  0  0
   12.5988   -9.1145    0.6158 O   0  0  0  0  0  0
   10.2496   -6.3435   -1.9941 O   0  0  0  0  0  0
   10.0373   -4.8064    5.2627 O   0  0  0  0  0  0
   11.6099   -7.6336   -0.7091 N   0  0  0  0  0  0
   11.6718   -2.8336    8.0982 N   0  0  0  0  0  0
   11.6220   -0.7860    6.4839 N   0  0  0  0  0  0
   11.5642   -8.6476    0.1408 C   0  0  0  0  0  0
   10.4057   -7.2233   -1.1313 C   0  0  0  0  0  0
    9.2288   -7.9690   -0.4866 C   0  0  0  0  0  0
    8.1740   -7.0436    0.2555 C   0  0  0  0  0  0
    8.5747   -6.4037    1.5700 C   0  0  0  0  0  0
    8.3483   -7.0468    2.8591 C   0  0  0  0  0  0
    8.8600   -6.4438    4.0471 C   0  0  0  0  0  0
    9.5868   -5.1954    3.9896 C   0  0  0  0  0  0
    9.7340   -4.5209    2.6964 C   0  0  0  0  0  0
    9.2360   -5.1209    1.4968 C   0  0  0  0  0  0
   10.5340   -3.5261    5.7932 C   0  0  0  0  0  0
   10.9773   -3.8809    7.2281 C   0  0  0  0  0  0
   11.8273   -3.4129    9.5119 C   0  0  0  0  0  0
   12.0515   -1.3423    7.6814 C   0  0  0  0  0  0
   11.8902    0.4854    6.0831 C   0  0  0  0  0  0
   12.6776    1.3694    6.9150 C   0  0  0  0  0  0
   13.1699    0.8786    8.1669 C   0  0  0  0  0  0
   12.8649   -0.4698    8.5548 C   0  0  0  0  0  0
   12.4522   -7.2184   -1.0044 H   0  0  0  0  0  0
  1  8  1  0  0  0
  1 10  1  0  0  0
  2  8  2  0  0  0
  3  9  2  0  0  0
  4 15  1  0  0  0
  4 18  1  0  0  0
  5  8  1  0  0  0
  5  9  1  0  0  0
  5 26  1  0  0  0
  6 19  1  0  0  0
  6 20  1  0  0  0
  6 21  1  0  0  0
  7 21  2  0  0  0
  7 22  1  0  0  0
  9 10  1  0  0  0
 10 11  1  0  0  0
 11 12  1  0  0  0
 12 13  2  0  0  0
 12 17  1  0  0  0
 13 14  1  0  0  0
 14 15  2  0  0  0
 15 16  1  0  0  0
 16 17  2  0  0  0
 18 19  1  0  0  0
 21 25  1  0  0  0
 22 23  2  0  0  0
 23 24  1  0  0  0
 24 25  2  0  0  0
M  END
>  <CHROM.0>
117.99314948,60.82453228,-59.89977835,-176.93687165,169.88349949,179.78022406

>  <CHROM.1>
-164.02344155,-174.47989627,172.87768005,8.13149548,52.33889322,-90.20662601
174.90788796,10.67895331,-4.93162503,3.56978897,2.17738129,-1.23945295,-1.72659223

>  <FORMUL>
      BRL    C18 H19 N3 O3 S1

>  <HET>
 BRL  A   1      25

>  <HETNAM>
     BRL 2,4-THIAZOLIDIINEDIONE, 5-[[4-[2-(METHYL-2-PYRIDINYLAMI
   2 BRL NO)ETHOXY]PHENYL]METHYL]-(9CL)

>  <HETSYN>
     BRL BRL49653; ROSIGLITAZONE

>  <Name>
BRL.pdb

>  <RI>
1.22162e+07

>  <Rbt.Current_Directory>
/home/malgorzata/Desktop/rDOCK_IFD/Wyniki/13_ppar-gamma/IFD

>  <Rbt.Executable>
rbdock ($Id: //depot/dev/client3/rdock/2013.1/src/exe/rbdock.cxx#4 $)

>  <Rbt.Library>
libRbt.so (2013.1, Build901 2013/11/27)

>  <Rbt.Parameter_File>
/home/malgorzata/Desktop/rDock_2013.1_src/data/scripts/dock.prm

>  <Rbt.Receptor>
cavity.prm

>  <SCORE>
-20.1988

>  <SCORE.INTER>
-10.8294

>  <SCORE.INTER.CONST>
1

>  <SCORE.INTER.POLAR>
-0.249603

>  <SCORE.INTER.REPUL>
0

>  <SCORE.INTER.ROT>
7

>  <SCORE.INTER.VDW>
-22.3808

>  <SCORE.INTER.norm>
-0.433176

>  <SCORE.INTRA>
-0.670091

>  <SCORE.INTRA.DIHEDRAL>
-1.15721

>  <SCORE.INTRA.DIHEDRAL.0>
5.55665

>  <SCORE.INTRA.POLAR>
0

>  <SCORE.INTRA.POLAR.0>
0

>  <SCORE.INTRA.REPUL>
0

>  <SCORE.INTRA.REPUL.0>
0

>  <SCORE.INTRA.VDW>
-0.0914888

>  <SCORE.INTRA.VDW.0>
-2.56587

>  <SCORE.INTRA.norm>
-0.0268037

>  <SCORE.RESTR>
0

>  <SCORE.RESTR.CAVITY>
0

>  <SCORE.RESTR.norm>
0

>  <SCORE.SYSTEM>
-8.69931

>  <SCORE.SYSTEM.CONST>
0

>  <SCORE.SYSTEM.DIHEDRAL>
0.573373

>  <SCORE.SYSTEM.POLAR>
-2.20064

>  <SCORE.SYSTEM.REPUL>
0.0715712

>  <SCORE.SYSTEM.VDW>
-1.8617

>  <SCORE.SYSTEM.norm>
-0.347973

>  <SCORE.heavy>
25

>  <SCORE.norm>
-0.807952

$$$$
BRL.pdb
  rDOCK(R)          3D
libRbt.so/2013.1/901 2013/11/27
 26 28  0  0  0  0  0  0  0  0999 V2000
   12.7714   -5.4262    1.0994 S   0  0  0  0  0  0
   13.8871   -3.9687   -0.8435 O   0  0  0  0  0  0
   12.7672   -8.2177   -1.6805 O   0  0  0  0  0  0
    8.6582   -6.1582    5.8641 O   0  0  0  0  0  0
   13.3680   -6.0368   -1.4598 N   0  0  0  0  0  0
    8.3061   -4.5827    8.3022 N   0  0  0  0  0  0
   10.8941   -4.4271    8.0217 N   0  0  0  0  0  0
   13.4234   -5.0714   -0.5555 C   0  0  0  0  0  0
   12.8263   -7.1759   -1.0066 C   0  0  0  0  0  0
   12.3220   -7.0967    0.4412 C   0  0  0  0  0  0
   10.7901   -7.4628    0.6389 C   0  0  0  0  0  0
   10.1456   -7.1694    1.9793 C   0  0  0  0  0  0
   10.3571   -8.0071    3.1540 C   0  0  0  0  0  0
    9.8185   -7.6048    4.4129 C   0  0  0  0  0  0
    9.0527   -6.3846    4.5344 C   0  0  0  0  0  0
    8.7797   -5.5971    3.3284 C   0  0  0  0  0  0
    9.3240   -5.9834    2.0630 C   0  0  0  0  0  0
    8.9211   -6.8857    7.1167 C   0  0  0  0  0  0
    8.1149   -6.0932    8.1670 C   0  0  0  0  0  0
    6.9181   -3.9282    8.3613 C   0  0  0  0  0  0
    9.6849   -3.7841    8.2501 C   0  0  0  0  0  0
   12.0984   -3.8009    7.9408 C   0  0  0  0  0  0
   12.1948   -2.3661    8.1005 C   0  0  0  0  0  0
   10.9981   -1.6195    8.3467 C   0  0  0  0  0  0
    9.7456   -2.3173    8.4249 C   0  0  0  0  0  0
   13.6952   -5.9278   -2.3819 H   0  0  0  0  0  0
  1  8  1  0  0  0
  1 10  1  0  0  0
  2  8  2  0  0  0
  3  9  2  0  0  0
  4 15  1  0  0  0
  4 18  1  0  0  0
  5  8  1  0  0  0
  5  9  1  0  0  0
  5 26  1  0  0  0
  6 19  1  0  0  0
  6 20  1  0  0  0
  6 21  1  0  0  0
  7 21  2  0  0  0
  7 22  1  0  0  0
  9 10  1  0  0  0
 10 11  1  0  0  0
 11 12  1  0  0  0
 12 13  2  0  0  0
 12 17  1  0  0  0
 13 14  1  0  0  0
 14 15  2  0  0  0
 15 16  1  0  0  0
 16 17  2  0  0  0
 18 19  1  0  0  0
 21 25  1  0  0  0
 22 23  2  0  0  0
 23 24  1  0  0  0
 24 25  2  0  0  0
M  END
>  <CHROM.0>
117.12699112,-178.19914916,-176.03596709,-173.10157910,177.01923092,-11.46955871

>  <CHROM.1>
2.77175682,-177.47613889,133.04028589,2.21574289,-44.50776169,-77.22322359
-52.90256482,10.76035594,-5.49282495,3.92733581,-1.09788560,0.71115101,0.98331759

>  <FORMUL>
      BRL    C18 H19 N3 O3 S1

>  <HET>
 BRL  A   1      25

>  <HETNAM>
     BRL 2,4-THIAZOLIDIINEDIONE, 5-[[4-[2-(METHYL-2-PYRIDINYLAMI
   2 BRL NO)ETHOXY]PHENYL]METHYL]-(9CL)

>  <HETSYN>
     BRL BRL49653; ROSIGLITAZONE

>  <Name>
BRL.pdb

>  <RI>
1.22162e+07

>  <Rbt.Current_Directory>
/home/malgorzata/Desktop/rDOCK_IFD/Wyniki/13_ppar-gamma/IFD

>  <Rbt.Executable>
rbdock ($Id: //depot/dev/client3/rdock/2013.1/src/exe/rbdock.cxx#4 $)

>  <Rbt.Library>
libRbt.so (2013.1, Build901 2013/11/27)

>  <Rbt.Parameter_File>
/home/malgorzata/Desktop/rDock_2013.1_src/data/scripts/dock.prm

>  <Rbt.Receptor>
cavity.prm

>  <SCORE>
-25.3373

>  <SCORE.INTER>
-16.3944

>  <SCORE.INTER.CONST>
1

>  <SCORE.INTER.POLAR>
-1.80885

>  <SCORE.INTER.REPUL>
0

>  <SCORE.INTER.ROT>
7

>  <SCORE.INTER.VDW>
-22.6443

>  <SCORE.INTER.norm>
-0.655774

>  <SCORE.INTRA>
-0.0641949

>  <SCORE.INTRA.DIHEDRAL>
-1.42535

>  <SCORE.INTRA.DIHEDRAL.0>
5.55665

>  <SCORE.INTRA.POLAR>
0

>  <SCORE.INTRA.POLAR.0>
0

>  <SCORE.INTRA.REPUL>
0

>  <SCORE.INTRA.REPUL.0>
0

>  <SCORE.INTRA.VDW>
0.64848

>  <SCORE.INTRA.VDW.0>
-2.56587

>  <SCORE.INTRA.norm>
-0.0025678

>  <SCORE.RESTR>
0

>  <SCORE.RESTR.CAVITY>
0

>  <SCORE.RESTR.norm>
0

>  <SCORE.SYSTEM>
-8.87871

>  <SCORE.SYSTEM.CONST>
0

>  <SCORE.SYSTEM.DIHEDRAL>
0.810467

>  <SCORE.SYSTEM.POLAR>
-2.20064

>  <SCORE.SYSTEM.VDW>
-1.80178

>  <SCORE.SYSTEM.norm>
-0.355148

>  <SCORE.heavy>
25

>  <SCORE.norm>
-1.01349

$$$$
