BRL.pdb
  rDOCK(R)          3D
libRbt.so/2013.1/901 2013/11/27
 26 28  0  0  0  0  0  0  0  0999 V2000
    9.9595   -8.0784   -0.6752 S   0  0  0  0  0  0
   10.5655  -10.5916    0.0036 O   0  0  0  0  0  0
   13.4988   -7.3317    0.8856 O   0  0  0  0  0  0
    8.0252   -7.1542    5.7412 O   0  0  0  0  0  0
   12.1259   -9.1128    0.5556 N   0  0  0  0  0  0
   10.1103   -6.9587    8.9400 N   0  0  0  0  0  0
   11.3900   -5.5387   10.7139 N   0  0  0  0  0  0
   10.9584   -9.4257    0.0155 C   0  0  0  0  0  0
   12.4141   -7.8047    0.5079 C   0  0  0  0  0  0
   11.3001   -6.9400   -0.0986 C   0  0  0  0  0  0
   10.7761   -5.7687    0.8359 C   0  0  0  0  0  0
   10.1476   -6.1336    2.1662 C   0  0  0  0  0  0
    9.5995   -5.1356    3.0774 C   0  0  0  0  0  0
    8.9138   -5.5579    4.2557 C   0  0  0  0  0  0
    8.7694   -6.9629    4.5645 C   0  0  0  0  0  0
    9.3972   -7.9501    3.6812 C   0  0  0  0  0  0
   10.0770   -7.5400    2.4910 C   0  0  0  0  0  0
    8.1943   -6.6570    7.1164 C   0  0  0  0  0  0
    9.5613   -7.2342    7.5403 C   0  0  0  0  0  0
    9.5946   -8.0573    9.8809 C   0  0  0  0  0  0
   10.9533   -5.6877    9.4044 C   0  0  0  0  0  0
   12.1323   -4.4930   11.1660 C   0  0  0  0  0  0
   12.5226   -3.4252   10.2710 C   0  0  0  0  0  0
   12.1106   -3.4908    8.9012 C   0  0  0  0  0  0
   11.3279   -4.6117    8.4622 C   0  0  0  0  0  0
   12.7280   -9.7807    0.9562 H   0  0  0  0  0  0
  1  8  1  0  0  0
  1 10  1  0  0  0
  2  8  2  0  0  0
  3  9  2  0  0  0
  4 15  1  0  0  0
  4 18  1  0  0  0
  5  8  1  0  0  0
  5  9  1  0  0  0
  5 26  1  0  0  0
  6 19  1  0  0  0
  6 20  1  0  0  0
  6 21  1  0  0  0
  7 21  2  0  0  0
  7 22  1  0  0  0
  9 10  1  0  0  0
 10 11  1  0  0  0
 11 12  1  0  0  0
 12 13  2  0  0  0
 12 17  1  0  0  0
 13 14  1  0  0  0
 14 15  2  0  0  0
 15 16  1  0  0  0
 16 17  2  0  0  0
 18 19  1  0  0  0
 21 25  1  0  0  0
 22 23  2  0  0  0
 23 24  1  0  0  0
 24 25  2  0  0  0
M  END
>  <CHROM.0>
-96.35613183,-62.07098062,-68.62747070,60.92252832,-11.01567816,-5.26770583

>  <CHROM.1>
-55.80401409,-61.26546868,88.74197138,179.34385209,63.14429662,-178.09322595
-179.24836168,10.54283654,-6.83231489,4.51589785,1.57014770,-0.63655921,-1.85819064

>  <FORMUL>
      BRL    C18 H19 N3 O3 S1

>  <HET>
 BRL  A   1      25

>  <HETNAM>
     BRL 2,4-THIAZOLIDIINEDIONE, 5-[[4-[2-(METHYL-2-PYRIDINYLAMI
   2 BRL NO)ETHOXY]PHENYL]METHYL]-(9CL)

>  <HETSYN>
     BRL BRL49653; ROSIGLITAZONE

>  <Name>
BRL.pdb

>  <RI>
3.64465e+07

>  <Rbt.Current_Directory>
/home/malgorzata/Desktop/rDOCK_IFD/Wyniki/13_ppar-gamma/IFD

>  <Rbt.Executable>
rbdock ($Id: //depot/dev/client3/rdock/2013.1/src/exe/rbdock.cxx#4 $)

>  <Rbt.Library>
libRbt.so (2013.1, Build901 2013/11/27)

>  <Rbt.Parameter_File>
/home/malgorzata/Desktop/rDock_2013.1_src/data/scripts/dock.prm

>  <Rbt.Receptor>
cavity.prm

>  <SCORE>
-18.1453

>  <SCORE.INTER>
-14.7094

>  <SCORE.INTER.CONST>
1

>  <SCORE.INTER.POLAR>
-0.216476

>  <SCORE.INTER.REPUL>
0

>  <SCORE.INTER.ROT>
7

>  <SCORE.INTER.VDW>
-26.3733

>  <SCORE.INTER.norm>
-0.588375

>  <SCORE.INTRA>
1.59663

>  <SCORE.INTRA.DIHEDRAL>
1.39055

>  <SCORE.INTRA.DIHEDRAL.0>
5.55665

>  <SCORE.INTRA.POLAR>
0

>  <SCORE.INTRA.POLAR.0>
0

>  <SCORE.INTRA.REPUL>
0

>  <SCORE.INTRA.REPUL.0>
0

>  <SCORE.INTRA.VDW>
0.90135

>  <SCORE.INTRA.VDW.0>
-2.56587

>  <SCORE.INTRA.norm>
0.063865

>  <SCORE.RESTR>
0

>  <SCORE.RESTR.CAVITY>
0

>  <SCORE.RESTR.norm>
0

>  <SCORE.SYSTEM>
-5.03252

>  <SCORE.SYSTEM.CONST>
0

>  <SCORE.SYSTEM.DIHEDRAL>
0.998234

>  <SCORE.SYSTEM.POLAR>
-1.6087

>  <SCORE.SYSTEM.REPUL>
0.183711

>  <SCORE.SYSTEM.VDW>
-0.980626

>  <SCORE.SYSTEM.norm>
-0.201301

>  <SCORE.heavy>
25

>  <SCORE.norm>
-0.72581

$$$$
BRL.pdb
  rDOCK(R)          3D
libRbt.so/2013.1/901 2013/11/27
 26 28  0  0  0  0  0  0  0  0999 V2000
   12.6861   -7.3359   -1.5371 S   0  0  0  0  0  0
   13.6814   -4.8654   -1.3133 O   0  0  0  0  0  0
    9.3325   -5.3855   -2.2219 O   0  0  0  0  0  0
    9.5031   -6.1252    4.6916 O   0  0  0  0  0  0
   11.5016   -4.9196   -1.7279 N   0  0  0  0  0  0
    8.8182   -4.1716    6.9841 N   0  0  0  0  0  0
    8.7912   -1.6347    6.3803 N   0  0  0  0  0  0
   12.6624   -5.5224   -1.5230 C   0  0  0  0  0  0
   10.4790   -5.7626   -1.9286 C   0  0  0  0  0  0
   10.8575   -7.2455   -1.8085 C   0  0  0  0  0  0
   10.0186   -8.0677   -0.7407 C   0  0  0  0  0  0
    9.9855   -7.5682    0.6901 C   0  0  0  0  0  0
    9.9801   -6.1496    1.0281 C   0  0  0  0  0  0
    9.8251   -5.7499    2.3894 C   0  0  0  0  0  0
    9.6886   -6.7348    3.4390 C   0  0  0  0  0  0
    9.7788   -8.1562    3.0921 C   0  0  0  0  0  0
    9.9221   -8.5698    1.7300 C   0  0  0  0  0  0
    8.9923   -6.6297    5.9768 C   0  0  0  0  0  0
    9.4544   -5.5614    6.9900 C   0  0  0  0  0  0
    7.5459   -4.2242    7.8425 C   0  0  0  0  0  0
    9.2877   -2.9077    6.1333 C   0  0  0  0  0  0
    9.1693   -0.5147    5.7083 C   0  0  0  0  0  0
   10.1497   -0.5883    4.6468 C   0  0  0  0  0  0
   10.7122   -1.8631    4.3170 C   0  0  0  0  0  0
   10.2873   -3.0224    5.0501 C   0  0  0  0  0  0
   11.3987   -3.9406   -1.7325 H   0  0  0  0  0  0
  1  8  1  0  0  0
  1 10  1  0  0  0
  2  8  2  0  0  0
  3  9  2  0  0  0
  4 15  1  0  0  0
  4 18  1  0  0  0
  5  8  1  0  0  0
  5  9  1  0  0  0
  5 26  1  0  0  0
  6 19  1  0  0  0
  6 20  1  0  0  0
  6 21  1  0  0  0
  7 21  2  0  0  0
  7 22  1  0  0  0
  9 10  1  0  0  0
 10 11  1  0  0  0
 11 12  1  0  0  0
 12 13  2  0  0  0
 12 17  1  0  0  0
 13 14  1  0  0  0
 14 15  2  0  0  0
 15 16  1  0  0  0
 16 17  2  0  0  0
 18 19  1  0  0  0
 21 25  1  0  0  0
 22 23  2  0  0  0
 23 24  1  0  0  0
 24 25  2  0  0  0
M  END
>  <CHROM.0>
-91.07911565,67.94302011,178.20619167,178.59816546,15.76649925,10.98340055

>  <CHROM.1>
162.22577362,163.88940138,85.72458933,-168.23751185,68.91486808,35.55479352
70.03854576,10.25478311,-5.27746962,2.35617833,0.79888900,-1.16310894,-2.70530645

>  <FORMUL>
      BRL    C18 H19 N3 O3 S1

>  <HET>
 BRL  A   1      25

>  <HETNAM>
     BRL 2,4-THIAZOLIDIINEDIONE, 5-[[4-[2-(METHYL-2-PYRIDINYLAMI
   2 BRL NO)ETHOXY]PHENYL]METHYL]-(9CL)

>  <HETSYN>
     BRL BRL49653; ROSIGLITAZONE

>  <Name>
BRL.pdb

>  <RI>
3.64465e+07

>  <Rbt.Current_Directory>
/home/malgorzata/Desktop/rDOCK_IFD/Wyniki/13_ppar-gamma/IFD

>  <Rbt.Executable>
rbdock ($Id: //depot/dev/client3/rdock/2013.1/src/exe/rbdock.cxx#4 $)

>  <Rbt.Library>
libRbt.so (2013.1, Build901 2013/11/27)

>  <Rbt.Parameter_File>
/home/malgorzata/Desktop/rDock_2013.1_src/data/scripts/dock.prm

>  <Rbt.Receptor>
cavity.prm

>  <SCORE>
-23.1721

>  <SCORE.INTER>
-15.1138

>  <SCORE.INTER.CONST>
1

>  <SCORE.INTER.POLAR>
-0.65483

>  <SCORE.INTER.REPUL>
0

>  <SCORE.INTER.ROT>
7

>  <SCORE.INTER.VDW>
-25.2873

>  <SCORE.INTER.norm>
-0.604551

>  <SCORE.INTRA>
0.0862827

>  <SCORE.INTRA.DIHEDRAL>
1.17516

>  <SCORE.INTRA.DIHEDRAL.0>
5.55665

>  <SCORE.INTRA.POLAR>
0

>  <SCORE.INTRA.POLAR.0>
0

>  <SCORE.INTRA.REPUL>
0

>  <SCORE.INTRA.REPUL.0>
0

>  <SCORE.INTRA.VDW>
-0.501297

>  <SCORE.INTRA.VDW.0>
-2.56587

>  <SCORE.INTRA.norm>
0.00345131

>  <SCORE.RESTR>
0

>  <SCORE.RESTR.CAVITY>
0

>  <SCORE.RESTR.norm>
0

>  <SCORE.SYSTEM>
-8.1446

>  <SCORE.SYSTEM.CONST>
0

>  <SCORE.SYSTEM.DIHEDRAL>
1.25886

>  <SCORE.SYSTEM.POLAR>
-2.08853

>  <SCORE.SYSTEM.REPUL>
0.0163322

>  <SCORE.SYSTEM.VDW>
-1.7547

>  <SCORE.SYSTEM.norm>
-0.325784

>  <SCORE.heavy>
25

>  <SCORE.norm>
-0.926883

$$$$
BRL.pdb
  rDOCK(R)          3D
libRbt.so/2013.1/901 2013/11/27
 26 28  0  0  0  0  0  0  0  0999 V2000
    7.9820   -4.3685    6.7756 S   0  0  0  0  0  0
   10.2532   -3.0640    7.3088 O   0  0  0  0  0  0
   10.0911   -7.4918    7.9233 O   0  0  0  0  0  0
   11.3255   -6.2035    1.1595 O   0  0  0  0  0  0
   10.3794   -5.2553    7.6383 N   0  0  0  0  0  0
   12.9590   -6.6645   -1.2065 N   0  0  0  0  0  0
   14.7445   -7.4094    0.5423 N   0  0  0  0  0  0
    9.7088   -4.1673    7.2930 C   0  0  0  0  0  0
    9.6617   -6.3846    7.5592 C   0  0  0  0  0  0
    8.2387   -6.1853    7.0188 C   0  0  0  0  0  0
    7.8802   -7.0514    5.7377 C   0  0  0  0  0  0
    8.7018   -6.8523    4.4795 C   0  0  0  0  0  0
    8.9086   -5.5417    3.8742 C   0  0  0  0  0  0
    9.7925   -5.4107    2.7614 C   0  0  0  0  0  0
   10.4736   -6.5641    2.2175 C   0  0  0  0  0  0
   10.1912   -7.8859    2.7850 C   0  0  0  0  0  0
    9.3164   -8.0288    3.9081 C   0  0  0  0  0  0
   11.2636   -5.1289    0.1553 C   0  0  0  0  0  0
   12.5790   -5.2995   -0.6333 C   0  0  0  0  0  0
   12.0542   -6.9445   -2.4153 C   0  0  0  0  0  0
   14.0056   -7.7010   -0.5965 C   0  0  0  0  0  0
   15.6323   -8.2586    1.1251 C   0  0  0  0  0  0
   15.8733   -9.5706    0.5649 C   0  0  0  0  0  0
   15.1601   -9.9563   -0.6153 C   0  0  0  0  0  0
   14.2307   -9.0314   -1.2008 C   0  0  0  0  0  0
   11.3204   -5.2367    7.9271 H   0  0  0  0  0  0
  1  8  1  0  0  0
  1 10  1  0  0  0
  2  8  2  0  0  0
  3  9  2  0  0  0
  4 15  1  0  0  0
  4 18  1  0  0  0
  5  8  1  0  0  0
  5  9  1  0  0  0
  5 26  1  0  0  0
  6 19  1  0  0  0
  6 20  1  0  0  0
  6 21  1  0  0  0
  7 21  2  0  0  0
  7 22  1  0  0  0
  9 10  1  0  0  0
 10 11  1  0  0  0
 11 12  1  0  0  0
 12 13  2  0  0  0
 12 17  1  0  0  0
 13 14  1  0  0  0
 14 15  2  0  0  0
 15 16  1  0  0  0
 16 17  2  0  0  0
 18 19  1  0  0  0
 21 25  1  0  0  0
 22 23  2  0  0  0
 23 24  1  0  0  0
 24 25  2  0  0  0
M  END
>  <CHROM.0>
-93.13991074,63.00961759,64.83270022,-61.96120083,3.19296114,178.27379677

>  <CHROM.1>
-30.56397598,176.93414647,73.28482278,-2.95609896,64.11008847,-53.16186568
51.53685171,11.08569731,-6.50148380,3.18258785,2.33165683,-0.68655166,1.78669213

>  <FORMUL>
      BRL    C18 H19 N3 O3 S1

>  <HET>
 BRL  A   1      25

>  <HETNAM>
     BRL 2,4-THIAZOLIDIINEDIONE, 5-[[4-[2-(METHYL-2-PYRIDINYLAMI
   2 BRL NO)ETHOXY]PHENYL]METHYL]-(9CL)

>  <HETSYN>
     BRL BRL49653; ROSIGLITAZONE

>  <Name>
BRL.pdb

>  <RI>
3.64465e+07

>  <Rbt.Current_Directory>
/home/malgorzata/Desktop/rDOCK_IFD/Wyniki/13_ppar-gamma/IFD

>  <Rbt.Executable>
rbdock ($Id: //depot/dev/client3/rdock/2013.1/src/exe/rbdock.cxx#4 $)

>  <Rbt.Library>
libRbt.so (2013.1, Build901 2013/11/27)

>  <Rbt.Parameter_File>
/home/malgorzata/Desktop/rDock_2013.1_src/data/scripts/dock.prm

>  <Rbt.Receptor>
cavity.prm

>  <SCORE>
-17.1503

>  <SCORE.INTER>
-10.9791

>  <SCORE.INTER.CONST>
1

>  <SCORE.INTER.POLAR>
0

>  <SCORE.INTER.REPUL>
0

>  <SCORE.INTER.ROT>
7

>  <SCORE.INTER.VDW>
-23.3791

>  <SCORE.INTER.norm>
-0.439165

>  <SCORE.INTRA>
0.305716

>  <SCORE.INTRA.DIHEDRAL>
-0.437487

>  <SCORE.INTRA.DIHEDRAL.0>
5.55665

>  <SCORE.INTRA.POLAR>
0

>  <SCORE.INTRA.POLAR.0>
0

>  <SCORE.INTRA.REPUL>
0

>  <SCORE.INTRA.REPUL.0>
0

>  <SCORE.INTRA.VDW>
0.524459

>  <SCORE.INTRA.VDW.0>
-2.56587

>  <SCORE.INTRA.norm>
0.0122286

>  <SCORE.RESTR>
0

>  <SCORE.RESTR.CAVITY>
0

>  <SCORE.RESTR.norm>
0

>  <SCORE.SYSTEM>
-6.47689

>  <SCORE.SYSTEM.CONST>
0

>  <SCORE.SYSTEM.DIHEDRAL>
0.588566

>  <SCORE.SYSTEM.POLAR>
-1.6087

>  <SCORE.SYSTEM.REPUL>
0.0137041

>  <SCORE.SYSTEM.VDW>
-1.37012

>  <SCORE.SYSTEM.norm>
-0.259076

>  <SCORE.heavy>
25

>  <SCORE.norm>
-0.686012

$$$$
BRL.pdb
  rDOCK(R)          3D
libRbt.so/2013.1/901 2013/11/27
 26 28  0  0  0  0  0  0  0  0999 V2000
   11.3229   -2.7154    7.9866 S   0  0  0  0  0  0
   13.7628   -3.6113    8.6098 O   0  0  0  0  0  0
   10.4915   -3.9169   11.6452 O   0  0  0  0  0  0
    9.7766   -7.4916    4.4876 O   0  0  0  0  0  0
   12.2677   -3.8833   10.2275 N   0  0  0  0  0  0
   11.1940   -8.3567    1.0464 N   0  0  0  0  0  0
   13.1261   -8.3684   -0.7051 N   0  0  0  0  0  0
   12.6108   -3.4690    9.0178 C   0  0  0  0  0  0
   10.9784   -3.6745   10.5285 C   0  0  0  0  0  0
   10.1589   -3.0646    9.3826 C   0  0  0  0  0  0
    8.8846   -3.9053    8.9477 C   0  0  0  0  0  0
    9.0189   -4.8699    7.7860 C   0  0  0  0  0  0
    8.9302   -4.4426    6.3945 C   0  0  0  0  0  0
    9.1872   -5.3816    5.3510 C   0  0  0  0  0  0
    9.5195   -6.7551    5.6566 C   0  0  0  0  0  0
    9.5237   -7.1877    7.0572 C   0  0  0  0  0  0
    9.2794   -6.2533    8.1128 C   0  0  0  0  0  0
   10.0804   -7.0880    3.1049 C   0  0  0  0  0  0
   10.6304   -8.3810    2.4670 C   0  0  0  0  0  0
   10.0159   -8.4186    0.0632 C   0  0  0  0  0  0
   12.7310   -8.4033    0.6255 C   0  0  0  0  0  0
   14.4187   -8.3797   -1.1272 C   0  0  0  0  0  0
   15.5048   -8.4368   -0.1731 C   0  0  0  0  0  0
   15.1918   -8.4828    1.2235 C   0  0  0  0  0  0
   13.8145   -8.4688    1.6293 C   0  0  0  0  0  0
   12.9023   -4.3066   10.8498 H   0  0  0  0  0  0
  1  8  1  0  0  0
  1 10  1  0  0  0
  2  8  2  0  0  0
  3  9  2  0  0  0
  4 15  1  0  0  0
  4 18  1  0  0  0
  5  8  1  0  0  0
  5  9  1  0  0  0
  5 26  1  0  0  0
  6 19  1  0  0  0
  6 20  1  0  0  0
  6 21  1  0  0  0
  7 21  2  0  0  0
  7 22  1  0  0  0
  9 10  1  0  0  0
 10 11  1  0  0  0
 11 12  1  0  0  0
 12 13  2  0  0  0
 12 17  1  0  0  0
 13 14  1  0  0  0
 14 15  2  0  0  0
 15 16  1  0  0  0
 16 17  2  0  0  0
 18 19  1  0  0  0
 21 25  1  0  0  0
 22 23  2  0  0  0
 23 24  1  0  0  0
 24 25  2  0  0  0
M  END
>  <CHROM.0>
-96.31791894,-60.20092157,63.22965522,-70.89673444,1.96913937,-0.54552649

>  <CHROM.1>
16.82998180,164.54238573,-80.79065893,-179.66422586,29.36798107,-82.11373889
-174.24193320,11.29661538,-5.95215650,5.34938811,-1.78413712,-0.17621280
-2.08840770

>  <FORMUL>
      BRL    C18 H19 N3 O3 S1

>  <HET>
 BRL  A   1      25

>  <HETNAM>
     BRL 2,4-THIAZOLIDIINEDIONE, 5-[[4-[2-(METHYL-2-PYRIDINYLAMI
   2 BRL NO)ETHOXY]PHENYL]METHYL]-(9CL)

>  <HETSYN>
     BRL BRL49653; ROSIGLITAZONE

>  <Name>
BRL.pdb

>  <RI>
3.64465e+07

>  <Rbt.Current_Directory>
/home/malgorzata/Desktop/rDOCK_IFD/Wyniki/13_ppar-gamma/IFD

>  <Rbt.Executable>
rbdock ($Id: //depot/dev/client3/rdock/2013.1/src/exe/rbdock.cxx#4 $)

>  <Rbt.Library>
libRbt.so (2013.1, Build901 2013/11/27)

>  <Rbt.Parameter_File>
/home/malgorzata/Desktop/rDock_2013.1_src/data/scripts/dock.prm

>  <Rbt.Receptor>
cavity.prm

>  <SCORE>
-24.5612

>  <SCORE.INTER>
-20.5751

>  <SCORE.INTER.CONST>
1

>  <SCORE.INTER.POLAR>
-2.3148

>  <SCORE.INTER.REPUL>
0

>  <SCORE.INTER.ROT>
7

>  <SCORE.INTER.VDW>
-25.1048

>  <SCORE.INTER.norm>
-0.823003

>  <SCORE.INTRA>
1.93387

>  <SCORE.INTRA.DIHEDRAL>
1.70566

>  <SCORE.INTRA.DIHEDRAL.0>
5.55665

>  <SCORE.INTRA.POLAR>
0

>  <SCORE.INTRA.POLAR.0>
0

>  <SCORE.INTRA.REPUL>
0

>  <SCORE.INTRA.REPUL.0>
0

>  <SCORE.INTRA.VDW>
1.08104

>  <SCORE.INTRA.VDW.0>
-2.56587

>  <SCORE.INTRA.norm>
0.0773547

>  <SCORE.RESTR>
0

>  <SCORE.RESTR.CAVITY>
0

>  <SCORE.RESTR.norm>
0

>  <SCORE.SYSTEM>
-5.92003

>  <SCORE.SYSTEM.CONST>
0

>  <SCORE.SYSTEM.DIHEDRAL>
0.744231

>  <SCORE.SYSTEM.POLAR>
-1.6087

>  <SCORE.SYSTEM.REPUL>
0.0199779

>  <SCORE.SYSTEM.VDW>
-0.922459

>  <SCORE.SYSTEM.norm>
-0.236801

>  <SCORE.heavy>
25

>  <SCORE.norm>
-0.98245

$$$$
BRL.pdb
  rDOCK(R)          3D
libRbt.so/2013.1/901 2013/11/27
 26 28  0  0  0  0  0  0  0  0999 V2000
   13.3603   -6.5000   -1.3091 S   0  0  0  0  0  0
   12.8470   -3.8864   -1.5328 O   0  0  0  0  0  0
    9.8195   -6.8324   -3.0039 O   0  0  0  0  0  0
    8.9541   -6.7018    4.1455 O   0  0  0  0  0  0
   11.2128   -5.1883   -2.2817 N   0  0  0  0  0  0
    8.4598   -5.3298    7.6504 N   0  0  0  0  0  0
   10.0530   -5.3803    9.7144 N   0  0  0  0  0  0
   12.4102   -5.0172   -1.7435 C   0  0  0  0  0  0
   10.8657   -6.4734   -2.4388 C   0  0  0  0  0  0
   11.8990   -7.4715   -1.8976 C   0  0  0  0  0  0
   11.3428   -8.4934   -0.8177 C   0  0  0  0  0  0
   10.7749   -7.9396    0.4741 C   0  0  0  0  0  0
    9.5166   -7.2046    0.5289 C   0  0  0  0  0  0
    8.9806   -6.8180    1.7938 C   0  0  0  0  0  0
    9.6777   -7.1329    3.0205 C   0  0  0  0  0  0
   10.9811   -7.7993    2.9430 C   0  0  0  0  0  0
   11.5235   -8.2025    1.6820 C   0  0  0  0  0  0
    9.1795   -6.8569    5.5919 C   0  0  0  0  0  0
    8.2352   -5.8081    6.2161 C   0  0  0  0  0  0
    7.8653   -3.9201    7.7832 C   0  0  0  0  0  0
    9.2863   -6.0776    8.7903 C   0  0  0  0  0  0
   10.7590   -5.9567   10.7236 C   0  0  0  0  0  0
   10.7567   -7.3930   10.8975 C   0  0  0  0  0  0
    9.9982   -8.1951    9.9855 C   0  0  0  0  0  0
    9.2656   -7.5490    8.9331 C   0  0  0  0  0  0
   10.6299   -4.4392   -2.5430 H   0  0  0  0  0  0
  1  8  1  0  0  0
  1 10  1  0  0  0
  2  8  2  0  0  0
  3  9  2  0  0  0
  4 15  1  0  0  0
  4 18  1  0  0  0
  5  8  1  0  0  0
  5  9  1  0  0  0
  5 26  1  0  0  0
  6 19  1  0  0  0
  6 20  1  0  0  0
  6 21  1  0  0  0
  7 21  2  0  0  0
  7 22  1  0  0  0
  9 10  1  0  0  0
 10 11  1  0  0  0
 11 12  1  0  0  0
 12 13  2  0  0  0
 12 17  1  0  0  0
 13 14  1  0  0  0
 14 15  2  0  0  0
 15 16  1  0  0  0
 16 17  2  0  0  0
 18 19  1  0  0  0
 21 25  1  0  0  0
 22 23  2  0  0  0
 23 24  1  0  0  0
 24 25  2  0  0  0
M  END
>  <CHROM.0>
-100.40812061,65.26812954,176.66022031,60.73108599,-179.83158633,-172.21152720

>  <CHROM.1>
175.38335449,164.30685036,154.12821072,143.51827331,63.78269189,70.00564004
-160.93227374,10.46176385,-6.51591059,3.14049360,-1.29426222,-0.74253471
1.75188474

>  <FORMUL>
      BRL    C18 H19 N3 O3 S1

>  <HET>
 BRL  A   1      25

>  <HETNAM>
     BRL 2,4-THIAZOLIDIINEDIONE, 5-[[4-[2-(METHYL-2-PYRIDINYLAMI
   2 BRL NO)ETHOXY]PHENYL]METHYL]-(9CL)

>  <HETSYN>
     BRL BRL49653; ROSIGLITAZONE

>  <Name>
BRL.pdb

>  <RI>
3.64465e+07

>  <Rbt.Current_Directory>
/home/malgorzata/Desktop/rDOCK_IFD/Wyniki/13_ppar-gamma/IFD

>  <Rbt.Executable>
rbdock ($Id: //depot/dev/client3/rdock/2013.1/src/exe/rbdock.cxx#4 $)

>  <Rbt.Library>
libRbt.so (2013.1, Build901 2013/11/27)

>  <Rbt.Parameter_File>
/home/malgorzata/Desktop/rDock_2013.1_src/data/scripts/dock.prm

>  <Rbt.Receptor>
cavity.prm

>  <SCORE>
-19.8185

>  <SCORE.INTER>
-12.9959

>  <SCORE.INTER.CONST>
1

>  <SCORE.INTER.POLAR>
0

>  <SCORE.INTER.REPUL>
0

>  <SCORE.INTER.ROT>
7

>  <SCORE.INTER.VDW>
-25.3959

>  <SCORE.INTER.norm>
-0.519834

>  <SCORE.INTRA>
1.51909

>  <SCORE.INTRA.DIHEDRAL>
3.73785

>  <SCORE.INTRA.DIHEDRAL.0>
5.55665

>  <SCORE.INTRA.POLAR>
0

>  <SCORE.INTRA.POLAR.0>
0

>  <SCORE.INTRA.REPUL>
0

>  <SCORE.INTRA.REPUL.0>
0

>  <SCORE.INTRA.VDW>
-0.349834

>  <SCORE.INTRA.VDW.0>
-2.56587

>  <SCORE.INTRA.norm>
0.0607636

>  <SCORE.RESTR>
0

>  <SCORE.RESTR.CAVITY>
0

>  <SCORE.RESTR.norm>
0

>  <SCORE.SYSTEM>
-8.34171

>  <SCORE.SYSTEM.CONST>
0

>  <SCORE.SYSTEM.DIHEDRAL>
0.680708

>  <SCORE.SYSTEM.POLAR>
-2.09347

>  <SCORE.SYSTEM.VDW>
-1.56427

>  <SCORE.SYSTEM.norm>
-0.333668

>  <SCORE.heavy>
25

>  <SCORE.norm>
-0.792739

$$$$
BRL.pdb
  rDOCK(R)          3D
libRbt.so/2013.1/901 2013/11/27
 26 28  0  0  0  0  0  0  0  0999 V2000
   12.7232   -9.4185    0.1297 S   0  0  0  0  0  0
   14.9978  -10.4999   -0.7653 O   0  0  0  0  0  0
   13.2747   -6.9718   -2.9083 O   0  0  0  0  0  0
    9.0066   -6.7323    4.8712 O   0  0  0  0  0  0
   14.3220   -8.7382   -1.9340 N   0  0  0  0  0  0
    9.0324   -6.8792    8.0562 N   0  0  0  0  0  0
   11.1230   -6.2393    9.4778 N   0  0  0  0  0  0
   14.1701   -9.6079   -0.9475 C   0  0  0  0  0  0
   13.3509   -7.8168   -2.0010 C   0  0  0  0  0  0
   12.3086   -7.9231   -0.8790 C   0  0  0  0  0  0
   12.1207   -6.6074   -0.0110 C   0  0  0  0  0  0
   11.2254   -6.6709    1.2107 C   0  0  0  0  0  0
   11.1801   -7.8310    2.0931 C   0  0  0  0  0  0
   10.4070   -7.7754    3.2915 C   0  0  0  0  0  0
    9.6561   -6.5882    3.6333 C   0  0  0  0  0  0
    9.6466   -5.4619    2.6951 C   0  0  0  0  0  0
   10.4269   -5.5009    1.4965 C   0  0  0  0  0  0
    8.3077   -5.7753    5.7446 C   0  0  0  0  0  0
    7.9658   -6.6142    6.9939 C   0  0  0  0  0  0
    8.6316   -8.1425    8.8319 C   0  0  0  0  0  0
   10.2767   -5.9496    8.4158 C   0  0  0  0  0  0
   12.2132   -5.5020    9.8196 C   0  0  0  0  0  0
   12.5671   -4.3179    9.0673 C   0  0  0  0  0  0
   11.7462   -3.9372    7.9575 C   0  0  0  0  0  0
   10.6037   -4.7421    7.6279 C   0  0  0  0  0  0
   15.0799   -8.7657   -2.5618 H   0  0  0  0  0  0
  1  8  1  0  0  0
  1 10  1  0  0  0
  2  8  2  0  0  0
  3  9  2  0  0  0
  4 15  1  0  0  0
  4 18  1  0  0  0
  5  8  1  0  0  0
  5  9  1  0  0  0
  5 26  1  0  0  0
  6 19  1  0  0  0
  6 20  1  0  0  0
  6 21  1  0  0  0
  7 21  2  0  0  0
  7 22  1  0  0  0
  9 10  1  0  0  0
 10 11  1  0  0  0
 11 12  1  0  0  0
 12 13  2  0  0  0
 12 17  1  0  0  0
 13 14  1  0  0  0
 14 15  2  0  0  0
 15 16  1  0  0  0
 16 17  2  0  0  0
 18 19  1  0  0  0
 21 25  1  0  0  0
 22 23  2  0  0  0
 23 24  1  0  0  0
 24 25  2  0  0  0
M  END
>  <CHROM.0>
-91.64927473,65.62096004,67.44475269,-177.10286789,11.85538981,-172.04350458

>  <CHROM.1>
169.24102069,-174.87608908,-157.20033079,174.64201927,-48.91227202,38.27344045
79.85112664,11.33525195,-7.05869295,3.45923194,-1.24803955,-0.25292716,1.38108979

>  <FORMUL>
      BRL    C18 H19 N3 O3 S1

>  <HET>
 BRL  A   1      25

>  <HETNAM>
     BRL 2,4-THIAZOLIDIINEDIONE, 5-[[4-[2-(METHYL-2-PYRIDINYLAMI
   2 BRL NO)ETHOXY]PHENYL]METHYL]-(9CL)

>  <HETSYN>
     BRL BRL49653; ROSIGLITAZONE

>  <Name>
BRL.pdb

>  <RI>
3.64465e+07

>  <Rbt.Current_Directory>
/home/malgorzata/Desktop/rDOCK_IFD/Wyniki/13_ppar-gamma/IFD

>  <Rbt.Executable>
rbdock ($Id: //depot/dev/client3/rdock/2013.1/src/exe/rbdock.cxx#4 $)

>  <Rbt.Library>
libRbt.so (2013.1, Build901 2013/11/27)

>  <Rbt.Parameter_File>
/home/malgorzata/Desktop/rDock_2013.1_src/data/scripts/dock.prm

>  <Rbt.Receptor>
cavity.prm

>  <SCORE>
-19.1039

>  <SCORE.INTER>
-14.0948

>  <SCORE.INTER.CONST>
1

>  <SCORE.INTER.POLAR>
0

>  <SCORE.INTER.REPUL>
0.059505

>  <SCORE.INTER.ROT>
7

>  <SCORE.INTER.VDW>
-26.7923

>  <SCORE.INTER.norm>
-0.563791

>  <SCORE.INTRA>
1.36932

>  <SCORE.INTRA.DIHEDRAL>
0.158404

>  <SCORE.INTRA.DIHEDRAL.0>
5.55665

>  <SCORE.INTRA.POLAR>
0

>  <SCORE.INTRA.POLAR.0>
0

>  <SCORE.INTRA.REPUL>
0

>  <SCORE.INTRA.REPUL.0>
0

>  <SCORE.INTRA.VDW>
1.29011

>  <SCORE.INTRA.VDW.0>
-2.56587

>  <SCORE.INTRA.norm>
0.0547726

>  <SCORE.RESTR>
0

>  <SCORE.RESTR.CAVITY>
0

>  <SCORE.RESTR.norm>
0

>  <SCORE.SYSTEM>
-6.37845

>  <SCORE.SYSTEM.CONST>
0

>  <SCORE.SYSTEM.DIHEDRAL>
1.14162

>  <SCORE.SYSTEM.POLAR>
-1.6087

>  <SCORE.SYSTEM.REPUL>
0.00853562

>  <SCORE.SYSTEM.VDW>
-1.52237

>  <SCORE.SYSTEM.norm>
-0.255138

>  <SCORE.heavy>
25

>  <SCORE.norm>
-0.764156

$$$$
BRL.pdb
  rDOCK(R)          3D
libRbt.so/2013.1/901 2013/11/27
 26 28  0  0  0  0  0  0  0  0999 V2000
   10.3625   -2.3844    7.5231 S   0  0  0  0  0  0
   10.0983    0.2574    7.2154 O   0  0  0  0  0  0
   10.3701   -2.3399    3.5838 O   0  0  0  0  0  0
    9.9826   -8.0506    1.3553 O   0  0  0  0  0  0
   10.1780   -0.8644    5.3019 N   0  0  0  0  0  0
   11.7666   -8.5576   -0.7823 N   0  0  0  0  0  0
    9.3055   -8.0577   -1.4852 N   0  0  0  0  0  0
   10.2013   -0.8170    6.6248 C   0  0  0  0  0  0
   10.2862   -2.1026    4.8001 C   0  0  0  0  0  0
   10.3433   -3.2068    5.8651 C   0  0  0  0  0  0
    9.2284   -4.3285    5.7287 C   0  0  0  0  0  0
    9.3239   -5.3035    4.5719 C   0  0  0  0  0  0
    9.5836   -4.8758    3.2021 C   0  0  0  0  0  0
    9.7820   -5.8554    2.1834 C   0  0  0  0  0  0
    9.7134   -7.2666    2.4902 C   0  0  0  0  0  0
    9.3701   -7.6786    3.8545 C   0  0  0  0  0  0
    9.1807   -6.7066    4.8871 C   0  0  0  0  0  0
   10.2256   -9.4916    1.1773 C   0  0  0  0  0  0
   11.5399   -9.5361    0.3698 C   0  0  0  0  0  0
   13.2807   -8.3863   -0.9736 C   0  0  0  0  0  0
   10.6530   -7.7340   -1.5718 C   0  0  0  0  0  0
    8.3070   -7.3806   -2.1124 C   0  0  0  0  0  0
    8.6038   -6.2368   -2.9473 C   0  0  0  0  0  0
    9.9691   -5.8333   -3.1011 C   0  0  0  0  0  0
   10.9949   -6.5740   -2.4222 C   0  0  0  0  0  0
   10.0891   -0.0626    4.7377 H   0  0  0  0  0  0
  1  8  1  0  0  0
  1 10  1  0  0  0
  2  8  2  0  0  0
  3  9  2  0  0  0
  4 15  1  0  0  0
  4 18  1  0  0  0
  5  8  1  0  0  0
  5  9  1  0  0  0
  5 26  1  0  0  0
  6 19  1  0  0  0
  6 20  1  0  0  0
  6 21  1  0  0  0
  7 21  2  0  0  0
  7 22  1  0  0  0
  9 10  1  0  0  0
 10 11  1  0  0  0
 11 12  1  0  0  0
 12 13  2  0  0  0
 12 17  1  0  0  0
 13 14  1  0  0  0
 14 15  2  0  0  0
 15 16  1  0  0  0
 16 17  2  0  0  0
 18 19  1  0  0  0
 21 25  1  0  0  0
 22 23  2  0  0  0
 23 24  1  0  0  0
 24 25  2  0  0  0
M  END
>  <CHROM.0>
-91.60985974,-178.14732781,66.19251004,-177.30051609,-171.71131177,-164.17511990

>  <CHROM.1>
169.80908267,-128.34137853,155.08305036,-15.13113541,-164.98643727,-46.66087052
-41.74493295,10.14412147,-5.38195295,2.50684813,-2.10329724,1.50615472,-1.70497232

>  <FORMUL>
      BRL    C18 H19 N3 O3 S1

>  <HET>
 BRL  A   1      25

>  <HETNAM>
     BRL 2,4-THIAZOLIDIINEDIONE, 5-[[4-[2-(METHYL-2-PYRIDINYLAMI
   2 BRL NO)ETHOXY]PHENYL]METHYL]-(9CL)

>  <HETSYN>
     BRL BRL49653; ROSIGLITAZONE

>  <Name>
BRL.pdb

>  <RI>
3.64465e+07

>  <Rbt.Current_Directory>
/home/malgorzata/Desktop/rDOCK_IFD/Wyniki/13_ppar-gamma/IFD

>  <Rbt.Executable>
rbdock ($Id: //depot/dev/client3/rdock/2013.1/src/exe/rbdock.cxx#4 $)

>  <Rbt.Library>
libRbt.so (2013.1, Build901 2013/11/27)

>  <Rbt.Parameter_File>
/home/malgorzata/Desktop/rDock_2013.1_src/data/scripts/dock.prm

>  <Rbt.Receptor>
cavity.prm

>  <SCORE>
-18.7166

>  <SCORE.INTER>
-16.168

>  <SCORE.INTER.CONST>
1

>  <SCORE.INTER.POLAR>
-0.938083

>  <SCORE.INTER.REPUL>
0

>  <SCORE.INTER.ROT>
7

>  <SCORE.INTER.VDW>
-25.3785

>  <SCORE.INTER.norm>
-0.646721

>  <SCORE.INTRA>
3.7127

>  <SCORE.INTRA.DIHEDRAL>
6.87535

>  <SCORE.INTRA.DIHEDRAL.0>
5.55665

>  <SCORE.INTRA.POLAR>
0

>  <SCORE.INTRA.POLAR.0>
0

>  <SCORE.INTRA.REPUL>
0

>  <SCORE.INTRA.REPUL.0>
0

>  <SCORE.INTRA.VDW>
0.275028

>  <SCORE.INTRA.VDW.0>
-2.56587

>  <SCORE.INTRA.norm>
0.148508

>  <SCORE.RESTR>
0

>  <SCORE.RESTR.CAVITY>
0

>  <SCORE.RESTR.norm>
0

>  <SCORE.SYSTEM>
-6.26123

>  <SCORE.SYSTEM.CONST>
0

>  <SCORE.SYSTEM.DIHEDRAL>
1.08052

>  <SCORE.SYSTEM.POLAR>
-1.6087

>  <SCORE.SYSTEM.VDW>
-1.33192

>  <SCORE.SYSTEM.norm>
-0.250449

>  <SCORE.heavy>
25

>  <SCORE.norm>
-0.748662

$$$$
BRL.pdb
  rDOCK(R)          3D
libRbt.so/2013.1/901 2013/11/27
 26 28  0  0  0  0  0  0  0  0999 V2000
   10.3149   -3.4865    8.1216 S   0  0  0  0  0  0
   12.8046   -4.4588    8.1317 O   0  0  0  0  0  0
    9.4703   -6.9988    9.6934 O   0  0  0  0  0  0
    9.7063   -7.2046    2.5910 O   0  0  0  0  0  0
   11.2849   -5.8778    8.9085 N   0  0  0  0  0  0
   11.8329   -7.8478    0.3462 N   0  0  0  0  0  0
   12.7347  -10.2481   -0.1293 N   0  0  0  0  0  0
   11.6304   -4.7021    8.4074 C   0  0  0  0  0  0
    9.9717   -6.0031    9.1457 C   0  0  0  0  0  0
    9.1398   -4.7848    8.7212 C   0  0  0  0  0  0
    7.9670   -5.0969    7.6981 C   0  0  0  0  0  0
    8.3298   -5.6242    6.3239 C   0  0  0  0  0  0
    9.0497   -4.8246    5.3395 C   0  0  0  0  0  0
    9.4654   -5.4237    4.1127 C   0  0  0  0  0  0
    9.1681   -6.8096    3.8278 C   0  0  0  0  0  0
    8.3726   -7.5757    4.7917 C   0  0  0  0  0  0
    7.9602   -6.9900    6.0302 C   0  0  0  0  0  0
    9.7825   -8.5078    1.9107 C   0  0  0  0  0  0
   10.3450   -8.1526    0.5183 C   0  0  0  0  0  0
   12.0144   -6.3230    0.3672 C   0  0  0  0  0  0
   12.9968   -8.8967    0.0516 C   0  0  0  0  0  0
   13.6780  -11.1871   -0.4076 C   0  0  0  0  0  0
   15.0714  -10.8174   -0.5314 C   0  0  0  0  0  0
   15.4371   -9.4444   -0.3536 C   0  0  0  0  0  0
   14.4117   -8.4828   -0.0611 C   0  0  0  0  0  0
   11.9340   -6.5953    9.0904 H   0  0  0  0  0  0
  1  8  1  0  0  0
  1 10  1  0  0  0
  2  8  2  0  0  0
  3  9  2  0  0  0
  4 15  1  0  0  0
  4 18  1  0  0  0
  5  8  1  0  0  0
  5  9  1  0  0  0
  5 26  1  0  0  0
  6 19  1  0  0  0
  6 20  1  0  0  0
  6 21  1  0  0  0
  7 21  2  0  0  0
  7 22  1  0  0  0
  9 10  1  0  0  0
 10 11  1  0  0  0
 11 12  1  0  0  0
 12 13  2  0  0  0
 12 17  1  0  0  0
 13 14  1  0  0  0
 14 15  2  0  0  0
 15 16  1  0  0  0
 16 17  2  0  0  0
 18 19  1  0  0  0
 21 25  1  0  0  0
 22 23  2  0  0  0
 23 24  1  0  0  0
 24 25  2  0  0  0
M  END
>  <CHROM.0>
-105.93566164,64.08339629,65.31647348,-174.83820839,16.24367388,7.10104727

>  <CHROM.1>
174.02523693,173.08431342,-97.18772611,2.38651602,61.00440849,-66.60520545
76.90154718,10.89057494,-6.83508262,4.37801986,-1.91761605,0.09612377,-2.00929417

>  <FORMUL>
      BRL    C18 H19 N3 O3 S1

>  <HET>
 BRL  A   1      25

>  <HETNAM>
     BRL 2,4-THIAZOLIDIINEDIONE, 5-[[4-[2-(METHYL-2-PYRIDINYLAMI
   2 BRL NO)ETHOXY]PHENYL]METHYL]-(9CL)

>  <HETSYN>
     BRL BRL49653; ROSIGLITAZONE

>  <Name>
BRL.pdb

>  <RI>
3.64465e+07

>  <Rbt.Current_Directory>
/home/malgorzata/Desktop/rDOCK_IFD/Wyniki/13_ppar-gamma/IFD

>  <Rbt.Executable>
rbdock ($Id: //depot/dev/client3/rdock/2013.1/src/exe/rbdock.cxx#4 $)

>  <Rbt.Library>
libRbt.so (2013.1, Build901 2013/11/27)

>  <Rbt.Parameter_File>
/home/malgorzata/Desktop/rDock_2013.1_src/data/scripts/dock.prm

>  <Rbt.Receptor>
cavity.prm

>  <SCORE>
-23.0185

>  <SCORE.INTER>
-15.9697

>  <SCORE.INTER.CONST>
1

>  <SCORE.INTER.POLAR>
-1.68838

>  <SCORE.INTER.REPUL>
0

>  <SCORE.INTER.ROT>
7

>  <SCORE.INTER.VDW>
-22.6292

>  <SCORE.INTER.norm>
-0.638786

>  <SCORE.INTRA>
-0.849086

>  <SCORE.INTRA.DIHEDRAL>
-1.25464

>  <SCORE.INTRA.DIHEDRAL.0>
5.55665

>  <SCORE.INTRA.POLAR>
0

>  <SCORE.INTRA.POLAR.0>
0

>  <SCORE.INTRA.REPUL>
0

>  <SCORE.INTRA.REPUL.0>
0

>  <SCORE.INTRA.VDW>
-0.221764

>  <SCORE.INTRA.VDW.0>
-2.56587

>  <SCORE.INTRA.norm>
-0.0339634

>  <SCORE.RESTR>
0

>  <SCORE.RESTR.CAVITY>
0

>  <SCORE.RESTR.norm>
0

>  <SCORE.SYSTEM>
-6.19971

>  <SCORE.SYSTEM.CONST>
0

>  <SCORE.SYSTEM.DIHEDRAL>
1.13662

>  <SCORE.SYSTEM.POLAR>
-1.6087

>  <SCORE.SYSTEM.REPUL>
0.0141592

>  <SCORE.SYSTEM.VDW>
-1.36924

>  <SCORE.SYSTEM.norm>
-0.247988

>  <SCORE.heavy>
25

>  <SCORE.norm>
-0.920738

$$$$
BRL.pdb
  rDOCK(R)          3D
libRbt.so/2013.1/901 2013/11/27
 26 28  0  0  0  0  0  0  0  0999 V2000
   14.2185   -6.2248   -0.3711 S   0  0  0  0  0  0
   13.7171   -3.6095   -0.1410 O   0  0  0  0  0  0
   10.9824   -6.1400   -2.6162 O   0  0  0  0  0  0
    8.4689   -7.4001    3.7729 O   0  0  0  0  0  0
   12.2309   -4.7020   -1.3756 N   0  0  0  0  0  0
    9.4168   -5.2608    6.7910 N   0  0  0  0  0  0
    9.2515   -7.4593    8.1840 N   0  0  0  0  0  0
   13.3300   -4.6663   -0.6383 C   0  0  0  0  0  0
   11.9260   -5.9224   -1.8383 C   0  0  0  0  0  0
   12.8751   -7.0293   -1.3579 C   0  0  0  0  0  0
   12.1714   -8.2351   -0.6024 C   0  0  0  0  0  0
   11.2311   -7.9180    0.5436 C   0  0  0  0  0  0
    9.8206   -7.6081    0.3409 C   0  0  0  0  0  0
    8.9664   -7.4394    1.4717 C   0  0  0  0  0  0
    9.4859   -7.5571    2.8157 C   0  0  0  0  0  0
   10.9216   -7.7873    3.0022 C   0  0  0  0  0  0
   11.7860   -7.9699    1.8769 C   0  0  0  0  0  0
    8.4980   -7.2142    5.2330 C   0  0  0  0  0  0
    9.0582   -5.7862    5.4011 C   0  0  0  0  0  0
    9.6879   -3.7535    6.6774 C   0  0  0  0  0  0
    9.6215   -6.1227    8.1165 C   0  0  0  0  0  0
    9.4226   -8.2536    9.2743 C   0  0  0  0  0  0
   10.0211   -7.7280   10.4821 C   0  0  0  0  0  0
   10.4280   -6.3553   10.5070 C   0  0  0  0  0  0
   10.2308   -5.5491    9.3353 C   0  0  0  0  0  0
   11.6867   -3.9042   -1.5666 H   0  0  0  0  0  0
  1  8  1  0  0  0
  1 10  1  0  0  0
  2  8  2  0  0  0
  3  9  2  0  0  0
  4 15  1  0  0  0
  4 18  1  0  0  0
  5  8  1  0  0  0
  5  9  1  0  0  0
  5 26  1  0  0  0
  6 19  1  0  0  0
  6 20  1  0  0  0
  6 21  1  0  0  0
  7 21  2  0  0  0
  7 22  1  0  0  0
  9 10  1  0  0  0
 10 11  1  0  0  0
 11 12  1  0  0  0
 12 13  2  0  0  0
 12 17  1  0  0  0
 13 14  1  0  0  0
 14 15  2  0  0  0
 15 16  1  0  0  0
 16 17  2  0  0  0
 18 19  1  0  0  0
 21 25  1  0  0  0
 22 23  2  0  0  0
 23 24  1  0  0  0
 24 25  2  0  0  0
M  END
>  <CHROM.0>
-93.11939169,64.52873614,-67.65336203,62.01257693,14.06294335,1.22962314

>  <CHROM.1>
-168.44373727,70.29887158,-169.47260579,-11.89104446,73.20227441,85.70349237
-172.19992497,10.88727560,-6.48638746,3.15426753,-1.14914889,0.76619429,1.31799323

>  <FORMUL>
      BRL    C18 H19 N3 O3 S1

>  <HET>
 BRL  A   1      25

>  <HETNAM>
     BRL 2,4-THIAZOLIDIINEDIONE, 5-[[4-[2-(METHYL-2-PYRIDINYLAMI
   2 BRL NO)ETHOXY]PHENYL]METHYL]-(9CL)

>  <HETSYN>
     BRL BRL49653; ROSIGLITAZONE

>  <Name>
BRL.pdb

>  <RI>
3.64465e+07

>  <Rbt.Current_Directory>
/home/malgorzata/Desktop/rDOCK_IFD/Wyniki/13_ppar-gamma/IFD

>  <Rbt.Executable>
rbdock ($Id: //depot/dev/client3/rdock/2013.1/src/exe/rbdock.cxx#4 $)

>  <Rbt.Library>
libRbt.so (2013.1, Build901 2013/11/27)

>  <Rbt.Parameter_File>
/home/malgorzata/Desktop/rDock_2013.1_src/data/scripts/dock.prm

>  <Rbt.Receptor>
cavity.prm

>  <SCORE>
-21.924

>  <SCORE.INTER>
-16.2474

>  <SCORE.INTER.CONST>
1

>  <SCORE.INTER.POLAR>
-0.674298

>  <SCORE.INTER.REPUL>
0

>  <SCORE.INTER.ROT>
7

>  <SCORE.INTER.VDW>
-26.3548

>  <SCORE.INTER.norm>
-0.649897

>  <SCORE.INTRA>
-0.296003

>  <SCORE.INTRA.DIHEDRAL>
-0.31288

>  <SCORE.INTRA.DIHEDRAL.0>
5.55665

>  <SCORE.INTRA.POLAR>
0

>  <SCORE.INTRA.POLAR.0>
0

>  <SCORE.INTRA.REPUL>
0

>  <SCORE.INTRA.REPUL.0>
0

>  <SCORE.INTRA.VDW>
-0.139563

>  <SCORE.INTRA.VDW.0>
-2.56587

>  <SCORE.INTRA.norm>
-0.0118401

>  <SCORE.RESTR>
0

>  <SCORE.RESTR.CAVITY>
0

>  <SCORE.RESTR.norm>
0

>  <SCORE.SYSTEM>
-5.38061

>  <SCORE.SYSTEM.CONST>
0

>  <SCORE.SYSTEM.DIHEDRAL>
1.08321

>  <SCORE.SYSTEM.POLAR>
-1.6087

>  <SCORE.SYSTEM.REPUL>
0.193499

>  <SCORE.SYSTEM.VDW>
-1.42014

>  <SCORE.SYSTEM.norm>
-0.215224

>  <SCORE.heavy>
25

>  <SCORE.norm>
-0.876962

$$$$
BRL.pdb
  rDOCK(R)          3D
libRbt.so/2013.1/901 2013/11/27
 26 28  0  0  0  0  0  0  0  0999 V2000
   11.4473   -2.4783    8.0939 S   0  0  0  0  0  0
   13.8620   -3.4497    8.7021 O   0  0  0  0  0  0
   10.4850   -4.0598   11.5713 O   0  0  0  0  0  0
    9.4329   -7.7279    4.6509 O   0  0  0  0  0  0
   12.3102   -3.8848   10.2282 N   0  0  0  0  0  0
   11.0888   -7.3584    1.2777 N   0  0  0  0  0  0
    9.1798   -6.4016   -0.2194 N   0  0  0  0  0  0
   12.6965   -3.3453    9.0826 C   0  0  0  0  0  0
   11.0114   -3.7021   10.5047 C   0  0  0  0  0  0
   10.2341   -2.9683    9.4029 C   0  0  0  0  0  0
    8.9743   -3.7503    8.8363 C   0  0  0  0  0  0
    9.1915   -4.7611    7.7277 C   0  0  0  0  0  0
    9.5542   -6.1492    7.9889 C   0  0  0  0  0  0
    9.6234   -7.0756    6.9054 C   0  0  0  0  0  0
    9.3532   -6.6509    5.5502 C   0  0  0  0  0  0
    9.0709   -5.2352    5.2949 C   0  0  0  0  0  0
    8.9870   -4.2992    6.3737 C   0  0  0  0  0  0
    9.2917   -7.8143    3.1881 C   0  0  0  0  0  0
   10.5239   -7.0475    2.6635 C   0  0  0  0  0  0
   12.4775   -7.9890    1.4576 C   0  0  0  0  0  0
   10.4397   -6.9780   -0.1279 C   0  0  0  0  0  0
    8.5827   -6.0317   -1.3837 C   0  0  0  0  0  0
    9.2522   -6.2309   -2.6507 C   0  0  0  0  0  0
   10.5545   -6.8264   -2.6544 C   0  0  0  0  0  0
   11.1516   -7.2030   -1.4040 C   0  0  0  0  0  0
   12.9216   -4.3759   10.8233 H   0  0  0  0  0  0
  1  8  1  0  0  0
  1 10  1  0  0  0
  2  8  2  0  0  0
  3  9  2  0  0  0
  4 15  1  0  0  0
  4 18  1  0  0  0
  5  8  1  0  0  0
  5  9  1  0  0  0
  5 26  1  0  0  0
  6 19  1  0  0  0
  6 20  1  0  0  0
  6 21  1  0  0  0
  7 21  2  0  0  0
  7 22  1  0  0  0
  9 10  1  0  0  0
 10 11  1  0  0  0
 11 12  1  0  0  0
 12 13  2  0  0  0
 12 17  1  0  0  0
 13 14  1  0  0  0
 14 15  2  0  0  0
 15 16  1  0  0  0
 16 17  2  0  0  0
 18 19  1  0  0  0
 21 25  1  0  0  0
 22 23  2  0  0  0
 23 24  1  0  0  0
 24 25  2  0  0  0
M  END
>  <CHROM.0>
-93.94854485,-64.50772717,63.41757114,50.59149931,-169.78818099,-153.12369162

>  <CHROM.1>
-177.60286969,67.48307619,-113.04978314,-5.98296881,39.32616467,86.20412945
154.76478716,10.44662340,-5.42417068,5.06758242,-1.46428327,-0.52462639,-1.83421615

>  <FORMUL>
      BRL    C18 H19 N3 O3 S1

>  <HET>
 BRL  A   1      25

>  <HETNAM>
     BRL 2,4-THIAZOLIDIINEDIONE, 5-[[4-[2-(METHYL-2-PYRIDINYLAMI
   2 BRL NO)ETHOXY]PHENYL]METHYL]-(9CL)

>  <HETSYN>
     BRL BRL49653; ROSIGLITAZONE

>  <Name>
BRL.pdb

>  <RI>
3.64465e+07

>  <Rbt.Current_Directory>
/home/malgorzata/Desktop/rDOCK_IFD/Wyniki/13_ppar-gamma/IFD

>  <Rbt.Executable>
rbdock ($Id: //depot/dev/client3/rdock/2013.1/src/exe/rbdock.cxx#4 $)

>  <Rbt.Library>
libRbt.so (2013.1, Build901 2013/11/27)

>  <Rbt.Parameter_File>
/home/malgorzata/Desktop/rDock_2013.1_src/data/scripts/dock.prm

>  <Rbt.Receptor>
cavity.prm

>  <SCORE>
-24.116

>  <SCORE.INTER>
-19.0405

>  <SCORE.INTER.CONST>
1

>  <SCORE.INTER.POLAR>
-2.2937

>  <SCORE.INTER.REPUL>
0

>  <SCORE.INTER.ROT>
7

>  <SCORE.INTER.VDW>
-23.6419

>  <SCORE.INTER.norm>
-0.761619

>  <SCORE.INTRA>
0.636192

>  <SCORE.INTRA.DIHEDRAL>
1.20148

>  <SCORE.INTRA.DIHEDRAL.0>
5.55665

>  <SCORE.INTRA.POLAR>
0

>  <SCORE.INTRA.POLAR.0>
0

>  <SCORE.INTRA.REPUL>
0

>  <SCORE.INTRA.REPUL.0>
0

>  <SCORE.INTRA.VDW>
0.0354511

>  <SCORE.INTRA.VDW.0>
-2.56587

>  <SCORE.INTRA.norm>
0.0254477

>  <SCORE.RESTR>
0

>  <SCORE.RESTR.CAVITY>
0

>  <SCORE.RESTR.norm>
0

>  <SCORE.SYSTEM>
-5.7117

>  <SCORE.SYSTEM.CONST>
0

>  <SCORE.SYSTEM.DIHEDRAL>
1.90645

>  <SCORE.SYSTEM.POLAR>
-1.6087

>  <SCORE.SYSTEM.REPUL>
0.00874474

>  <SCORE.SYSTEM.VDW>
-1.23908

>  <SCORE.SYSTEM.norm>
-0.228468

>  <SCORE.heavy>
25

>  <SCORE.norm>
-0.964639

$$$$
