TOL.pdb
  rDOCK(R)          3D
libRbt.so/2013.1/901 2013/11/27
 25 26  0  0  0  0  0  0  0  0999 V2000
   30.2216   26.7354   80.9878 C   0  0  0  0  0  0
   31.5318   26.4414   81.1825 F   0  0  0  0  0  0
   29.5784   26.4644   82.1544 F   0  0  0  0  0  0
   30.1178   28.0737   80.7713 F   0  0  0  0  0  0
   29.6313   25.9421   79.8019 C   0  0  0  0  0  0
   30.4002   25.1109   78.9463 C   0  0  0  0  0  0
   31.6993   24.9870   79.1496 O   0  0  0  0  0  0
   32.4728   25.8315   78.3132 C   0  0  0  0  0  0
   29.7622   24.4304   77.8861 C   0  0  0  0  0  0
   28.3859   24.5665   77.6726 C   0  0  0  0  0  0
   27.6196   25.3927   78.5183 C   0  0  0  0  0  0
   26.2296   25.5229   78.2909 C   0  0  0  0  0  0
   25.4661   26.3458   79.1351 C   0  0  0  0  0  0
   26.0716   27.0322   80.1901 C   0  0  0  0  0  0
   27.4481   26.8994   80.4117 C   0  0  0  0  0  0
   28.2354   26.0808   79.5808 C   0  0  0  0  0  0
   25.4934   24.8182   77.1759 C   0  0  0  0  0  0
   24.2311   23.7244   77.5586 S   0  0  0  0  0  0
   25.8248   25.0667   75.9079 N   0  0  0  0  0  0
   26.8289   26.0809   75.6063 C   0  0  0  0  0  0
   25.1925   24.3597   74.7987 C   0  0  0  0  0  0
   24.6048   25.3366   73.7658 C   0  0  0  0  0  0
   24.9731   25.3586   72.6209 O   0  0  0  0  0  0
   23.6516   26.1539   74.2270 O   0  0  0  0  0  0
   23.3719   26.0911   75.1191 H   0  0  0  0  0  0
  1  2  1  0  0  0
  1  3  1  0  0  0
  1  4  1  0  0  0
  1  5  1  0  0  0
  5  6  2  0  0  0
  5 16  1  0  0  0
  6  7  1  0  0  0
  6  9  1  0  0  0
  7  8  1  0  0  0
  9 10  2  0  0  0
 10 11  1  0  0  0
 11 12  2  0  0  0
 11 16  1  0  0  0
 12 13  1  0  0  0
 12 17  1  0  0  0
 13 14  2  0  0  0
 14 15  1  0  0  0
 15 16  2  0  0  0
 17 18  2  0  0  0
 17 19  1  0  0  0
 19 20  1  0  0  0
 19 21  1  0  0  0
 21 22  1  0  0  0
 22 23  2  0  0  0
 22 24  1  0  0  0
 24 25  1  0  0  0
M  END
>  <CHROM.0>
-20.28824547,43.00198846,-96.78177932,151.18581028,179.18769539,63.01132249
126.71233760,-136.81574601,-61.18859492,-61.54190337,-68.98281111,-61.41326028
-60.50081437,145.93008468

>  <CHROM.1>
-5.71378835,-97.84849420,119.46805409,126.28743479,119.34615327,-1.47504235
27.65494340,25.65336545,78.13219785,0.75531308,-0.00718818,1.32685939

>  <FORMUL>
      TOL    C16 H14 F3 N1 O3 S1

>  <HET>
 TOL  A 320      24

>  <HETNAM>
     TOL TOLRESTAT

>  <Name>
TOL.pdb

>  <RI>
-2.03807e+08

>  <Rbt.Current_Directory>
/home/malgorzata/Desktop/rDOCK_IFD/Wyniki/1_aldose_reductase

>  <Rbt.Executable>
rbdock ($Id: //depot/dev/client3/rdock/2013.1/src/exe/rbdock.cxx#4 $)

>  <Rbt.Library>
libRbt.so (2013.1, Build901 2013/11/27)

>  <Rbt.Parameter_File>
/home/malgorzata/Desktop/rDock_2013.1_src/data/scripts/dock.prm

>  <Rbt.Receptor>
cavity.prm

>  <SCORE>
-33.0786

>  <SCORE.INTER>
-11.1158

>  <SCORE.INTER.CONST>
1

>  <SCORE.INTER.POLAR>
-0.806161

>  <SCORE.INTER.REPUL>
0

>  <SCORE.INTER.ROT>
5

>  <SCORE.INTER.VDW>
-18.7748

>  <SCORE.INTER.norm>
-0.463157

>  <SCORE.INTRA>
-4.29877

>  <SCORE.INTRA.DIHEDRAL>
1.95115

>  <SCORE.INTRA.DIHEDRAL.0>
16.9783

>  <SCORE.INTRA.POLAR>
0

>  <SCORE.INTRA.POLAR.0>
0

>  <SCORE.INTRA.REPUL>
0

>  <SCORE.INTRA.REPUL.0>
0

>  <SCORE.INTRA.VDW>
-5.27435

>  <SCORE.INTRA.VDW.0>
4.87734

>  <SCORE.INTRA.norm>
-0.179115

>  <SCORE.RESTR>
0

>  <SCORE.RESTR.CAVITY>
0

>  <SCORE.RESTR.norm>
0

>  <SCORE.SYSTEM>
-17.6641

>  <SCORE.SYSTEM.CONST>
0

>  <SCORE.SYSTEM.DIHEDRAL>
4.84629

>  <SCORE.SYSTEM.POLAR>
-4.49819

>  <SCORE.SYSTEM.VDW>
-4.79341

>  <SCORE.SYSTEM.norm>
-0.736004

>  <SCORE.heavy>
24

>  <SCORE.norm>
-1.37828

$$$$
TOL.pdb
  rDOCK(R)          3D
libRbt.so/2013.1/901 2013/11/27
 25 26  0  0  0  0  0  0  0  0999 V2000
   16.3291   29.5919   65.8397 C   0  0  0  0  0  0
   15.6717   28.4844   65.4131 F   0  0  0  0  0  0
   16.3376   30.4703   64.8023 F   0  0  0  0  0  0
   15.6003   30.1555   66.8397 F   0  0  0  0  0  0
   17.7553   29.2541   66.3258 C   0  0  0  0  0  0
   18.9073   29.3167   65.4993 C   0  0  0  0  0  0
   18.7866   29.6819   64.2358 O   0  0  0  0  0  0
   18.3331   28.6317   63.3977 C   0  0  0  0  0  0
   20.1675   28.9831   66.0423 C   0  0  0  0  0  0
   20.2907   28.5941   67.3809 C   0  0  0  0  0  0
   19.1490   28.5283   68.2038 C   0  0  0  0  0  0
   19.2868   28.1322   69.5548 C   0  0  0  0  0  0
   18.1484   28.0681   70.3749 C   0  0  0  0  0  0
   16.8893   28.3905   69.8634 C   0  0  0  0  0  0
   16.7581   28.7828   68.5254 C   0  0  0  0  0  0
   17.8829   28.8559   67.6829 C   0  0  0  0  0  0
   20.6077   27.7669   70.1902 C   0  0  0  0  0  0
   21.7411   26.8368   69.3035 S   0  0  0  0  0  0
   20.8812   28.1848   71.4271 N   0  0  0  0  0  0
   19.9453   29.0642   72.1190 C   0  0  0  0  0  0
   22.1119   27.7999   72.1106 C   0  0  0  0  0  0
   22.9443   29.0291   72.5137 C   0  0  0  0  0  0
   22.7300   29.6466   73.5235 O   0  0  0  0  0  0
   23.9267   29.3590   71.6678 O   0  0  0  0  0  0
   24.5082   30.0633   71.8770 H   0  0  0  0  0  0
  1  2  1  0  0  0
  1  3  1  0  0  0
  1  4  1  0  0  0
  1  5  1  0  0  0
  5  6  2  0  0  0
  5 16  1  0  0  0
  6  7  1  0  0  0
  6  9  1  0  0  0
  7  8  1  0  0  0
  9 10  2  0  0  0
 10 11  1  0  0  0
 11 12  2  0  0  0
 11 16  1  0  0  0
 12 13  1  0  0  0
 12 17  1  0  0  0
 13 14  2  0  0  0
 14 15  1  0  0  0
 15 16  2  0  0  0
 17 18  2  0  0  0
 17 19  1  0  0  0
 19 20  1  0  0  0
 19 21  1  0  0  0
 21 22  1  0  0  0
 22 23  2  0  0  0
 22 24  1  0  0  0
 24 25  1  0  0  0
M  END
>  <CHROM.0>
-10.06603633,43.79326550,-98.92435330,149.68014527,178.94587622,-178.98719626
127.47236058,-135.46519151,-61.18859492,-61.54190337,62.93961019,-61.41326028
-60.50081437,-91.03837611

>  <CHROM.1>
93.07049147,-79.83902689,-40.52539476,121.29003127,83.49906094,-176.10588670
19.27682417,28.77409066,68.41752650,2.24807798,0.14159708,-1.54991216

>  <FORMUL>
      TOL    C16 H14 F3 N1 O3 S1

>  <HET>
 TOL  A 320      24

>  <HETNAM>
     TOL TOLRESTAT

>  <Name>
TOL.pdb

>  <RI>
-2.03807e+08

>  <Rbt.Current_Directory>
/home/malgorzata/Desktop/rDOCK_IFD/Wyniki/1_aldose_reductase

>  <Rbt.Executable>
rbdock ($Id: //depot/dev/client3/rdock/2013.1/src/exe/rbdock.cxx#4 $)

>  <Rbt.Library>
libRbt.so (2013.1, Build901 2013/11/27)

>  <Rbt.Parameter_File>
/home/malgorzata/Desktop/rDock_2013.1_src/data/scripts/dock.prm

>  <Rbt.Receptor>
cavity.prm

>  <SCORE>
-30.4251

>  <SCORE.INTER>
-14.8851

>  <SCORE.INTER.CONST>
1

>  <SCORE.INTER.POLAR>
-0.247791

>  <SCORE.INTER.REPUL>
0.0456856

>  <SCORE.INTER.ROT>
5

>  <SCORE.INTER.VDW>
-24.671

>  <SCORE.INTER.norm>
-0.620211

>  <SCORE.INTRA>
-0.383566

>  <SCORE.INTRA.DIHEDRAL>
-2.28926

>  <SCORE.INTRA.DIHEDRAL.0>
16.9783

>  <SCORE.INTRA.POLAR>
0

>  <SCORE.INTRA.POLAR.0>
0

>  <SCORE.INTRA.REPUL>
0

>  <SCORE.INTRA.REPUL.0>
0

>  <SCORE.INTRA.VDW>
0.761064

>  <SCORE.INTRA.VDW.0>
4.87734

>  <SCORE.INTRA.norm>
-0.0159819

>  <SCORE.RESTR>
0

>  <SCORE.RESTR.CAVITY>
0

>  <SCORE.RESTR.norm>
0

>  <SCORE.SYSTEM>
-15.1564

>  <SCORE.SYSTEM.CONST>
0

>  <SCORE.SYSTEM.DIHEDRAL>
4.05056

>  <SCORE.SYSTEM.POLAR>
-4.46103

>  <SCORE.SYSTEM.REPUL>
0.589117

>  <SCORE.SYSTEM.VDW>
-4.9598

>  <SCORE.SYSTEM.norm>
-0.631518

>  <SCORE.heavy>
24

>  <SCORE.norm>
-1.26771

$$$$
TOL.pdb
  rDOCK(R)          3D
libRbt.so/2013.1/901 2013/11/27
 25 26  0  0  0  0  0  0  0  0999 V2000
   23.0817   29.1468   72.7476 C   0  0  0  0  0  0
   23.7986   28.2682   73.4925 F   0  0  0  0  0  0
   22.2342   29.7856   73.5972 F   0  0  0  0  0  0
   23.9394   30.0802   72.2557 F   0  0  0  0  0  0
   22.3287   28.4378   71.6011 C   0  0  0  0  0  0
   22.8126   27.2830   70.9331 C   0  0  0  0  0  0
   23.9716   26.7591   71.2892 O   0  0  0  0  0  0
   23.8487   25.7960   72.3227 C   0  0  0  0  0  0
   22.0463   26.7130   69.8928 C   0  0  0  0  0  0
   20.8201   27.2728   69.5167 C   0  0  0  0  0  0
   20.3375   28.4207   70.1758 C   0  0  0  0  0  0
   19.0972   28.9777   69.7852 C   0  0  0  0  0  0
   18.6162   30.1213   70.4435 C   0  0  0  0  0  0
   19.3545   30.7069   71.4744 C   0  0  0  0  0  0
   20.5815   30.1514   71.8581 C   0  0  0  0  0  0
   21.0856   29.0056   71.2151 C   0  0  0  0  0  0
   18.2341   28.4104   68.6829 C   0  0  0  0  0  0
   16.6998   27.7519   69.0680 S   0  0  0  0  0  0
   18.6702   28.4424   67.4227 N   0  0  0  0  0  0
   19.9315   29.1043   67.1084 C   0  0  0  0  0  0
   17.9058   27.8445   66.3327 C   0  0  0  0  0  0
   16.8888   28.8368   65.7432 C   0  0  0  0  0  0
   16.9902   30.0258   65.8944 O   0  0  0  0  0  0
   15.8891   28.2867   65.0451 O   0  0  0  0  0  0
   15.8377   27.3555   64.9549 H   0  0  0  0  0  0
  1  2  1  0  0  0
  1  3  1  0  0  0
  1  4  1  0  0  0
  1  5  1  0  0  0
  5  6  2  0  0  0
  5 16  1  0  0  0
  6  7  1  0  0  0
  6  9  1  0  0  0
  7  8  1  0  0  0
  9 10  2  0  0  0
 10 11  1  0  0  0
 11 12  2  0  0  0
 11 16  1  0  0  0
 12 13  1  0  0  0
 12 17  1  0  0  0
 13 14  2  0  0  0
 14 15  1  0  0  0
 15 16  2  0  0  0
 17 18  2  0  0  0
 17 19  1  0  0  0
 19 20  1  0  0  0
 19 21  1  0  0  0
 21 22  1  0  0  0
 22 23  2  0  0  0
 22 24  1  0  0  0
 24 25  1  0  0  0
M  END
>  <CHROM.0>
-15.24805785,-61.83229976,-98.80745791,149.96421536,-61.25166859,-58.32672253
129.72305330,-138.20801537,-61.18859492,-61.54190337,63.73307631,-61.41326028
-60.50081437,139.52335460

>  <CHROM.1>
-32.18692086,89.07274956,114.36148008,87.69784946,19.84553909,0.92881174
20.28768228,28.54142512,69.92789979,0.49819875,-0.58912818,0.81256428

>  <FORMUL>
      TOL    C16 H14 F3 N1 O3 S1

>  <HET>
 TOL  A 320      24

>  <HETNAM>
     TOL TOLRESTAT

>  <Name>
TOL.pdb

>  <RI>
-2.03807e+08

>  <Rbt.Current_Directory>
/home/malgorzata/Desktop/rDOCK_IFD/Wyniki/1_aldose_reductase

>  <Rbt.Executable>
rbdock ($Id: //depot/dev/client3/rdock/2013.1/src/exe/rbdock.cxx#4 $)

>  <Rbt.Library>
libRbt.so (2013.1, Build901 2013/11/27)

>  <Rbt.Parameter_File>
/home/malgorzata/Desktop/rDock_2013.1_src/data/scripts/dock.prm

>  <Rbt.Receptor>
cavity.prm

>  <SCORE>
-24.2368

>  <SCORE.INTER>
-5.89298

>  <SCORE.INTER.CONST>
1

>  <SCORE.INTER.POLAR>
0

>  <SCORE.INTER.REPUL>
0.206459

>  <SCORE.INTER.ROT>
5

>  <SCORE.INTER.VDW>
-17.3253

>  <SCORE.INTER.norm>
-0.245541

>  <SCORE.INTRA>
-2.21802

>  <SCORE.INTRA.DIHEDRAL>
3.00845

>  <SCORE.INTRA.DIHEDRAL.0>
16.9783

>  <SCORE.INTRA.POLAR>
0

>  <SCORE.INTRA.POLAR.0>
0

>  <SCORE.INTRA.REPUL>
0

>  <SCORE.INTRA.REPUL.0>
0

>  <SCORE.INTRA.VDW>
-3.72225

>  <SCORE.INTRA.VDW.0>
4.87734

>  <SCORE.INTRA.norm>
-0.0924177

>  <SCORE.RESTR>
0.0030358

>  <SCORE.RESTR.CAVITY>
0.0030358

>  <SCORE.RESTR.norm>
0.000126492

>  <SCORE.SYSTEM>
-16.1288

>  <SCORE.SYSTEM.CONST>
0

>  <SCORE.SYSTEM.DIHEDRAL>
3.02223

>  <SCORE.SYSTEM.POLAR>
-3.77918

>  <SCORE.SYSTEM.VDW>
-4.79073

>  <SCORE.SYSTEM.norm>
-0.672034

>  <SCORE.heavy>
24

>  <SCORE.norm>
-1.00987

$$$$
TOL.pdb
  rDOCK(R)          3D
libRbt.so/2013.1/901 2013/11/27
 25 26  0  0  0  0  0  0  0  0999 V2000
   23.0581   28.5015   73.2062 C   0  0  0  0  0  0
   22.5126   27.7585   74.2018 F   0  0  0  0  0  0
   22.7954   29.8036   73.4957 F   0  0  0  0  0  0
   24.4076   28.3422   73.2524 F   0  0  0  0  0  0
   22.5060   28.0918   71.8236 C   0  0  0  0  0  0
   23.0516   27.0474   71.0327 C   0  0  0  0  0  0
   24.0926   26.3665   71.4767 O   0  0  0  0  0  0
   23.7928   25.5798   72.6178 C   0  0  0  0  0  0
   22.4730   26.7546   69.7783 C   0  0  0  0  0  0
   21.3717   27.4803   69.3102 C   0  0  0  0  0  0
   20.8288   28.5195   70.0914 C   0  0  0  0  0  0
   19.7165   29.2464   69.6063 C   0  0  0  0  0  0
   19.1749   30.2815   70.3861 C   0  0  0  0  0  0
   19.7288   30.5938   71.6297 C   0  0  0  0  0  0
   20.8296   29.8707   72.1060 C   0  0  0  0  0  0
   21.3905   28.8287   71.3446 C   0  0  0  0  0  0
   19.0550   28.9765   68.2754 C   0  0  0  0  0  0
   20.0076   28.9459   66.8514 S   0  0  0  0  0  0
   17.7412   28.7510   68.2267 N   0  0  0  0  0  0
   16.9719   28.6765   69.4639 C   0  0  0  0  0  0
   17.0444   28.5554   66.9594 C   0  0  0  0  0  0
   16.4605   29.8743   66.4246 C   0  0  0  0  0  0
   17.0967   30.6237   65.7314 O   0  0  0  0  0  0
   15.1950   30.1260   66.7775 O   0  0  0  0  0  0
   14.7249   29.5116   67.3061 H   0  0  0  0  0  0
  1  2  1  0  0  0
  1  3  1  0  0  0
  1  4  1  0  0  0
  1  5  1  0  0  0
  5  6  2  0  0  0
  5 16  1  0  0  0
  6  7  1  0  0  0
  6  9  1  0  0  0
  7  8  1  0  0  0
  9 10  2  0  0  0
 10 11  1  0  0  0
 11 12  2  0  0  0
 11 16  1  0  0  0
 12 13  1  0  0  0
 12 17  1  0  0  0
 13 14  2  0  0  0
 14 15  1  0  0  0
 15 16  2  0  0  0
 17 18  2  0  0  0
 17 19  1  0  0  0
 19 20  1  0  0  0
 19 21  1  0  0  0
 21 22  1  0  0  0
 22 23  2  0  0  0
 22 24  1  0  0  0
 24 25  1  0  0  0
M  END
>  <CHROM.0>
-10.31743181,173.86595445,79.77869885,40.05108929,178.80327834,-61.97969589
129.00182988,-137.94245808,-61.18859492,-61.54190337,-172.76291656,-61.41326028
-60.50081437,-107.68529591

>  <CHROM.1>
-86.70230419,66.85386579,-53.17436011,-93.50852092,87.65884241,-0.75951333
20.50231363,28.66016606,70.09910942,0.53166313,-0.59660498,1.11375520

>  <FORMUL>
      TOL    C16 H14 F3 N1 O3 S1

>  <HET>
 TOL  A 320      24

>  <HETNAM>
     TOL TOLRESTAT

>  <Name>
TOL.pdb

>  <RI>
-2.03807e+08

>  <Rbt.Current_Directory>
/home/malgorzata/Desktop/rDOCK_IFD/Wyniki/1_aldose_reductase

>  <Rbt.Executable>
rbdock ($Id: //depot/dev/client3/rdock/2013.1/src/exe/rbdock.cxx#4 $)

>  <Rbt.Library>
libRbt.so (2013.1, Build901 2013/11/27)

>  <Rbt.Parameter_File>
/home/malgorzata/Desktop/rDock_2013.1_src/data/scripts/dock.prm

>  <Rbt.Receptor>
cavity.prm

>  <SCORE>
-26.7157

>  <SCORE.INTER>
-15.7162

>  <SCORE.INTER.CONST>
1

>  <SCORE.INTER.POLAR>
-1.09132

>  <SCORE.INTER.REPUL>
0

>  <SCORE.INTER.ROT>
5

>  <SCORE.INTER.VDW>
-22.4057

>  <SCORE.INTER.norm>
-0.654841

>  <SCORE.INTRA>
-1.67413

>  <SCORE.INTRA.DIHEDRAL>
-0.245249

>  <SCORE.INTRA.DIHEDRAL.0>
16.9783

>  <SCORE.INTRA.POLAR>
0

>  <SCORE.INTRA.POLAR.0>
0

>  <SCORE.INTRA.REPUL>
0

>  <SCORE.INTRA.REPUL.0>
0

>  <SCORE.INTRA.VDW>
-1.5515

>  <SCORE.INTRA.VDW.0>
4.87734

>  <SCORE.INTRA.norm>
-0.0697554

>  <SCORE.RESTR>
0

>  <SCORE.RESTR.CAVITY>
0

>  <SCORE.RESTR.norm>
0

>  <SCORE.SYSTEM>
-9.32544

>  <SCORE.SYSTEM.CONST>
0

>  <SCORE.SYSTEM.DIHEDRAL>
4.50758

>  <SCORE.SYSTEM.POLAR>
-2.9371

>  <SCORE.SYSTEM.REPUL>
0.554242

>  <SCORE.SYSTEM.VDW>
-4.36429

>  <SCORE.SYSTEM.norm>
-0.38856

>  <SCORE.heavy>
24

>  <SCORE.norm>
-1.11316

$$$$
TOL.pdb
  rDOCK(R)          3D
libRbt.so/2013.1/901 2013/11/27
 25 26  0  0  0  0  0  0  0  0999 V2000
   17.9631   29.9922   69.6332 C   0  0  0  0  0  0
   17.1932   31.0958   69.4598 F   0  0  0  0  0  0
   18.9412   30.3276   70.5158 F   0  0  0  0  0  0
   17.1993   29.0339   70.2223 F   0  0  0  0  0  0
   18.5395   29.4852   68.2934 C   0  0  0  0  0  0
   19.8857   29.0715   68.1184 C   0  0  0  0  0  0
   20.7199   29.1100   69.1416 O   0  0  0  0  0  0
   20.9724   27.8302   69.6977 C   0  0  0  0  0  0
   20.3136   28.6272   66.8480 C   0  0  0  0  0  0
   19.4272   28.5905   65.7657 C   0  0  0  0  0  0
   18.0906   29.0027   65.9350 C   0  0  0  0  0  0
   17.2050   28.9622   64.8327 C   0  0  0  0  0  0
   15.8724   29.3721   65.0024 C   0  0  0  0  0  0
   15.4229   29.8181   66.2473 C   0  0  0  0  0  0
   16.3033   29.8558   67.3358 C   0  0  0  0  0  0
   17.6431   29.4499   67.1925 C   0  0  0  0  0  0
   17.6052   28.4945   63.4532 C   0  0  0  0  0  0
   18.7170   29.4230   62.5378 S   0  0  0  0  0  0
   17.1000   27.3581   62.9709 N   0  0  0  0  0  0
   16.2399   26.5325   63.8115 C   0  0  0  0  0  0
   17.4001   26.9003   61.6180 C   0  0  0  0  0  0
   18.8621   26.4402   61.4869 C   0  0  0  0  0  0
   19.5080   26.6300   60.4901 O   0  0  0  0  0  0
   19.3671   25.8216   62.5601 O   0  0  0  0  0  0
   20.2632   25.5478   62.5645 H   0  0  0  0  0  0
  1  2  1  0  0  0
  1  3  1  0  0  0
  1  4  1  0  0  0
  1  5  1  0  0  0
  5  6  2  0  0  0
  5 16  1  0  0  0
  6  7  1  0  0  0
  6  9  1  0  0  0
  7  8  1  0  0  0
  9 10  2  0  0  0
 10 11  1  0  0  0
 11 12  2  0  0  0
 11 16  1  0  0  0
 12 13  1  0  0  0
 12 17  1  0  0  0
 13 14  2  0  0  0
 14 15  1  0  0  0
 15 16  2  0  0  0
 17 18  2  0  0  0
 17 19  1  0  0  0
 19 20  1  0  0  0
 19 21  1  0  0  0
 21 22  1  0  0  0
 22 23  2  0  0  0
 22 24  1  0  0  0
 24 25  1  0  0  0
M  END
>  <CHROM.0>
-13.09158552,43.81401661,-96.46757052,150.71884370,-179.59109260,-178.86659941
128.06202170,-135.84484112,-61.18859492,-61.54190337,-171.87547708,-61.41326028
-60.50081437,120.19003026

>  <CHROM.1>
135.91115060,103.77931585,-67.40311505,70.24617184,-143.57196584,-177.33075152
18.24136750,28.67772394,65.91634124,1.53617624,-0.36247550,1.24422945

>  <FORMUL>
      TOL    C16 H14 F3 N1 O3 S1

>  <HET>
 TOL  A 320      24

>  <HETNAM>
     TOL TOLRESTAT

>  <Name>
TOL.pdb

>  <RI>
-2.03807e+08

>  <Rbt.Current_Directory>
/home/malgorzata/Desktop/rDOCK_IFD/Wyniki/1_aldose_reductase

>  <Rbt.Executable>
rbdock ($Id: //depot/dev/client3/rdock/2013.1/src/exe/rbdock.cxx#4 $)

>  <Rbt.Library>
libRbt.so (2013.1, Build901 2013/11/27)

>  <Rbt.Parameter_File>
/home/malgorzata/Desktop/rDock_2013.1_src/data/scripts/dock.prm

>  <Rbt.Receptor>
cavity.prm

>  <SCORE>
-30.6863

>  <SCORE.INTER>
-10.5278

>  <SCORE.INTER.CONST>
1

>  <SCORE.INTER.POLAR>
0

>  <SCORE.INTER.REPUL>
0

>  <SCORE.INTER.ROT>
5

>  <SCORE.INTER.VDW>
-20.9278

>  <SCORE.INTER.norm>
-0.438658

>  <SCORE.INTRA>
-5.2475

>  <SCORE.INTRA.DIHEDRAL>
3.04515

>  <SCORE.INTRA.DIHEDRAL.0>
16.9783

>  <SCORE.INTRA.POLAR>
0

>  <SCORE.INTRA.POLAR.0>
0

>  <SCORE.INTRA.REPUL>
0

>  <SCORE.INTRA.REPUL.0>
0

>  <SCORE.INTRA.VDW>
-6.77008

>  <SCORE.INTRA.VDW.0>
4.87734

>  <SCORE.INTRA.norm>
-0.218646

>  <SCORE.RESTR>
0

>  <SCORE.RESTR.CAVITY>
0

>  <SCORE.RESTR.norm>
0

>  <SCORE.SYSTEM>
-14.9111

>  <SCORE.SYSTEM.CONST>
0

>  <SCORE.SYSTEM.DIHEDRAL>
4.34554

>  <SCORE.SYSTEM.POLAR>
-4.46511

>  <SCORE.SYSTEM.REPUL>
0.589117

>  <SCORE.SYSTEM.VDW>
-4.84804

>  <SCORE.SYSTEM.norm>
-0.621294

>  <SCORE.heavy>
24

>  <SCORE.norm>
-1.2786

$$$$
TOL.pdb
  rDOCK(R)          3D
libRbt.so/2013.1/901 2013/11/27
 25 26  0  0  0  0  0  0  0  0999 V2000
   16.3432   30.0800   65.0764 C   0  0  0  0  0  0
   15.2655   29.3148   65.3827 F   0  0  0  0  0  0
   16.4920   30.0301   63.7260 F   0  0  0  0  0  0
   16.0524   31.3674   65.4030 F   0  0  0  0  0  0
   17.6099   29.6003   65.8177 C   0  0  0  0  0  0
   18.8305   29.2777   65.1694 C   0  0  0  0  0  0
   18.9211   29.3836   63.8561 O   0  0  0  0  0  0
   18.5588   28.1915   63.1789 C   0  0  0  0  0  0
   19.9306   28.8441   65.9414 C   0  0  0  0  0  0
   19.8295   28.7306   67.3326 C   0  0  0  0  0  0
   18.6187   29.0476   67.9795 C   0  0  0  0  0  0
   18.5291   28.9274   69.3861 C   0  0  0  0  0  0
   17.3221   29.2447   70.0305 C   0  0  0  0  0  0
   16.2175   29.6741   69.2914 C   0  0  0  0  0  0
   16.3114   29.7922   67.8990 C   0  0  0  0  0  0
   17.5093   29.4812   67.2292 C   0  0  0  0  0  0
   19.6719   28.4719   70.2625 C   0  0  0  0  0  0
   20.3351   26.9079   70.0380 S   0  0  0  0  0  0
   20.1601   29.2972   71.1898 N   0  0  0  0  0  0
   19.6496   30.6601   71.2886 C   0  0  0  0  0  0
   21.2152   28.8795   72.1075 C   0  0  0  0  0  0
   22.5829   28.8148   71.4064 C   0  0  0  0  0  0
   22.7076   28.4193   70.2773 O   0  0  0  0  0  0
   23.6220   29.2356   72.1363 O   0  0  0  0  0  0
   23.4856   29.5476   73.0092 H   0  0  0  0  0  0
  1  2  1  0  0  0
  1  3  1  0  0  0
  1  4  1  0  0  0
  1  5  1  0  0  0
  5  6  2  0  0  0
  5 16  1  0  0  0
  6  7  1  0  0  0
  6  9  1  0  0  0
  7  8  1  0  0  0
  9 10  2  0  0  0
 10 11  1  0  0  0
 11 12  2  0  0  0
 11 16  1  0  0  0
 12 13  1  0  0  0
 12 17  1  0  0  0
 13 14  2  0  0  0
 14 15  1  0  0  0
 15 16  2  0  0  0
 17 18  2  0  0  0
 17 19  1  0  0  0
 19 20  1  0  0  0
 19 21  1  0  0  0
 21 22  1  0  0  0
 22 23  2  0  0  0
 22 24  1  0  0  0
 24 25  1  0  0  0
M  END
>  <CHROM.0>
61.28744400,173.38054748,-95.75664710,148.70715635,174.87472648,-178.91376033
126.51272601,77.48404798,-61.18859492,-61.54190337,-173.24635710,-61.41326028
-60.50081437,-104.75442071

>  <CHROM.1>
125.92830305,-89.74289034,-61.09559981,74.56825931,-38.21013488,-0.44890161
18.88067450,29.15969281,67.97774864,2.22414607,0.31902537,-1.64716297

>  <FORMUL>
      TOL    C16 H14 F3 N1 O3 S1

>  <HET>
 TOL  A 320      24

>  <HETNAM>
     TOL TOLRESTAT

>  <Name>
TOL.pdb

>  <RI>
-2.03807e+08

>  <Rbt.Current_Directory>
/home/malgorzata/Desktop/rDOCK_IFD/Wyniki/1_aldose_reductase

>  <Rbt.Executable>
rbdock ($Id: //depot/dev/client3/rdock/2013.1/src/exe/rbdock.cxx#4 $)

>  <Rbt.Library>
libRbt.so (2013.1, Build901 2013/11/27)

>  <Rbt.Parameter_File>
/home/malgorzata/Desktop/rDock_2013.1_src/data/scripts/dock.prm

>  <Rbt.Receptor>
cavity.prm

>  <SCORE>
-17.5616

>  <SCORE.INTER>
-19.3175

>  <SCORE.INTER.CONST>
1

>  <SCORE.INTER.POLAR>
-1.04111

>  <SCORE.INTER.REPUL>
0.000883959

>  <SCORE.INTER.ROT>
5

>  <SCORE.INTER.VDW>
-26.1821

>  <SCORE.INTER.norm>
-0.804895

>  <SCORE.INTRA>
-4.18396

>  <SCORE.INTRA.DIHEDRAL>
2.19404

>  <SCORE.INTRA.DIHEDRAL.0>
16.9783

>  <SCORE.INTRA.POLAR>
0

>  <SCORE.INTRA.POLAR.0>
0

>  <SCORE.INTRA.REPUL>
0

>  <SCORE.INTRA.REPUL.0>
0

>  <SCORE.INTRA.VDW>
-5.28097

>  <SCORE.INTRA.VDW.0>
4.87734

>  <SCORE.INTRA.norm>
-0.174331

>  <SCORE.RESTR>
0

>  <SCORE.RESTR.CAVITY>
0

>  <SCORE.RESTR.norm>
0

>  <SCORE.SYSTEM>
5.93979

>  <SCORE.SYSTEM.CONST>
0

>  <SCORE.SYSTEM.DIHEDRAL>
7.10301

>  <SCORE.SYSTEM.POLAR>
-3.09889

>  <SCORE.SYSTEM.REPUL>
0.912467

>  <SCORE.SYSTEM.VDW>
8.36217

>  <SCORE.SYSTEM.norm>
0.247491

>  <SCORE.heavy>
24

>  <SCORE.norm>
-0.731735

$$$$
TOL.pdb
  rDOCK(R)          3D
libRbt.so/2013.1/901 2013/11/27
 25 26  0  0  0  0  0  0  0  0999 V2000
   22.9875   29.0349   72.8166 C   0  0  0  0  0  0
   23.7303   28.1719   73.5544 F   0  0  0  0  0  0
   22.2041   29.7256   73.6869 F   0  0  0  0  0  0
   23.8323   29.9290   72.2371 F   0  0  0  0  0  0
   22.1546   28.2965   71.7465 C   0  0  0  0  0  0
   22.5157   27.0413   71.1913 C   0  0  0  0  0  0
   23.6229   26.4433   71.5921 O   0  0  0  0  0  0
   23.4061   25.5374   72.6613 C   0  0  0  0  0  0
   21.6844   26.4521   70.2135 C   0  0  0  0  0  0
   20.5134   27.0905   69.7896 C   0  0  0  0  0  0
   20.1528   28.3377   70.3366 C   0  0  0  0  0  0
   18.9675   28.9733   69.8985 C   0  0  0  0  0  0
   18.6080   30.2161   70.4452 C   0  0  0  0  0  0
   19.4129   30.8227   71.4122 C   0  0  0  0  0  0
   20.5851   30.1892   71.8432 C   0  0  0  0  0  0
   20.9675   28.9434   71.3119 C   0  0  0  0  0  0
   18.0392   28.3903   68.8591 C   0  0  0  0  0  0
   16.5278   27.7458   69.3452 S   0  0  0  0  0  0
   18.4009   28.3975   67.5752 N   0  0  0  0  0  0
   19.6439   29.0479   67.1756 C   0  0  0  0  0  0
   17.5718   27.7837   66.5428 C   0  0  0  0  0  0
   17.2296   28.7817   65.4234 C   0  0  0  0  0  0
   18.0472   29.1549   64.6239 O   0  0  0  0  0  0
   15.9592   29.1997   65.3962 O   0  0  0  0  0  0
   15.3452   28.8734   66.0243 H   0  0  0  0  0  0
  1  2  1  0  0  0
  1  3  1  0  0  0
  1  4  1  0  0  0
  1  5  1  0  0  0
  5  6  2  0  0  0
  5 16  1  0  0  0
  6  7  1  0  0  0
  6  9  1  0  0  0
  7  8  1  0  0  0
  9 10  2  0  0  0
 10 11  1  0  0  0
 11 12  2  0  0  0
 11 16  1  0  0  0
 12 13  1  0  0  0
 12 17  1  0  0  0
 13 14  2  0  0  0
 14 15  1  0  0  0
 15 16  2  0  0  0
 17 18  2  0  0  0
 17 19  1  0  0  0
 19 20  1  0  0  0
 19 21  1  0  0  0
 21 22  1  0  0  0
 22 23  2  0  0  0
 22 24  1  0  0  0
 24 25  1  0  0  0
M  END
>  <CHROM.0>
-18.32761725,43.43927841,-93.91082123,151.52585441,-59.02405222,61.45807689
130.10011863,79.84091645,-61.18859492,-61.54190337,-69.91068756,-61.41326028
-60.50081437,130.66379936

>  <CHROM.1>
-26.02436980,92.72549066,106.80601680,124.69207337,71.99338469,-0.95267383
20.18938722,28.46786988,70.00895177,0.50336017,-0.65189235,0.80827385

>  <FORMUL>
      TOL    C16 H14 F3 N1 O3 S1

>  <HET>
 TOL  A 320      24

>  <HETNAM>
     TOL TOLRESTAT

>  <Name>
TOL.pdb

>  <RI>
-2.03807e+08

>  <Rbt.Current_Directory>
/home/malgorzata/Desktop/rDOCK_IFD/Wyniki/1_aldose_reductase

>  <Rbt.Executable>
rbdock ($Id: //depot/dev/client3/rdock/2013.1/src/exe/rbdock.cxx#4 $)

>  <Rbt.Library>
libRbt.so (2013.1, Build901 2013/11/27)

>  <Rbt.Parameter_File>
/home/malgorzata/Desktop/rDock_2013.1_src/data/scripts/dock.prm

>  <Rbt.Receptor>
cavity.prm

>  <SCORE>
-3.37129

>  <SCORE.INTER>
0.530648

>  <SCORE.INTER.CONST>
1

>  <SCORE.INTER.POLAR>
-0.774597

>  <SCORE.INTER.REPUL>
0.141741

>  <SCORE.INTER.ROT>
5

>  <SCORE.INTER.VDW>
-7.94443

>  <SCORE.INTER.norm>
0.0221103

>  <SCORE.INTRA>
-2.42597

>  <SCORE.INTRA.DIHEDRAL>
4.04035

>  <SCORE.INTRA.DIHEDRAL.0>
16.9783

>  <SCORE.INTRA.POLAR>
0

>  <SCORE.INTRA.POLAR.0>
0

>  <SCORE.INTRA.REPUL>
0

>  <SCORE.INTRA.REPUL.0>
0

>  <SCORE.INTRA.VDW>
-4.44614

>  <SCORE.INTRA.VDW.0>
4.87734

>  <SCORE.INTRA.norm>
-0.101082

>  <SCORE.RESTR>
0

>  <SCORE.RESTR.CAVITY>
0

>  <SCORE.RESTR.norm>
0

>  <SCORE.SYSTEM>
-1.47597

>  <SCORE.SYSTEM.CONST>
0

>  <SCORE.SYSTEM.DIHEDRAL>
4.7065

>  <SCORE.SYSTEM.POLAR>
-3.80406

>  <SCORE.SYSTEM.VDW>
9.1046

>  <SCORE.SYSTEM.norm>
-0.0614987

>  <SCORE.heavy>
24

>  <SCORE.norm>
-0.14047

$$$$
TOL.pdb
  rDOCK(R)          3D
libRbt.so/2013.1/901 2013/11/27
 25 26  0  0  0  0  0  0  0  0999 V2000
   16.3541   30.0603   65.1084 C   0  0  0  0  0  0
   16.0584   31.3428   65.4380 F   0  0  0  0  0  0
   15.2555   29.3143   65.3996 F   0  0  0  0  0  0
   16.5358   30.0024   63.7622 F   0  0  0  0  0  0
   17.6105   29.5577   65.8521 C   0  0  0  0  0  0
   18.8187   29.1914   65.2040 C   0  0  0  0  0  0
   18.9063   29.2740   63.8887 O   0  0  0  0  0  0
   18.5198   28.0777   63.2326 C   0  0  0  0  0  0
   19.9100   28.7399   65.9781 C   0  0  0  0  0  0
   19.8122   28.6512   67.3714 C   0  0  0  0  0  0
   18.6136   29.0116   68.0182 C   0  0  0  0  0  0
   18.5271   28.9161   69.4268 C   0  0  0  0  0  0
   17.3323   29.2766   70.0711 C   0  0  0  0  0  0
   16.2365   29.7246   69.3299 C   0  0  0  0  0  0
   16.3273   29.8181   67.9354 C   0  0  0  0  0  0
   17.5131   29.4636   67.2657 C   0  0  0  0  0  0
   19.6610   28.4432   70.3057 C   0  0  0  0  0  0
   20.2713   26.8538   70.1120 S   0  0  0  0  0  0
   20.1826   29.2726   71.2109 N   0  0  0  0  0  0
   19.7174   30.6533   71.2823 C   0  0  0  0  0  0
   21.2303   28.8412   72.1307 C   0  0  0  0  0  0
   22.6168   28.8729   71.4650 C   0  0  0  0  0  0
   23.5832   29.3304   72.0159 O   0  0  0  0  0  0
   22.6745   28.3501   70.2351 O   0  0  0  0  0  0
   23.4997   28.2697   69.7984 H   0  0  0  0  0  0
  1  2  1  0  0  0
  1  3  1  0  0  0
  1  4  1  0  0  0
  1  5  1  0  0  0
  5  6  2  0  0  0
  5 16  1  0  0  0
  6  7  1  0  0  0
  6  9  1  0  0  0
  7  8  1  0  0  0
  9 10  2  0  0  0
 10 11  1  0  0  0
 11 12  2  0  0  0
 11 16  1  0  0  0
 12 13  1  0  0  0
 12 17  1  0  0  0
 13 14  2  0  0  0
 14 15  1  0  0  0
 15 16  2  0  0  0
 17 18  2  0  0  0
 17 19  1  0  0  0
 19 20  1  0  0  0
 19 21  1  0  0  0
 21 22  1  0  0  0
 22 23  2  0  0  0
 22 24  1  0  0  0
 24 25  1  0  0  0
M  END
>  <CHROM.0>
-17.27555357,42.81255508,92.51663936,149.05534309,-49.17572596,62.21781607
128.55726774,-136.73626609,-61.18859492,-61.54190337,-172.86695187,-61.41326028
-60.50081437,129.10498635

>  <CHROM.1>
-115.74682601,-90.28049591,-61.59568587,81.16125862,135.05513221,-174.83166842
18.87683750,29.12818396,67.99559715,2.23017419,0.33356029,-1.66205558

>  <FORMUL>
      TOL    C16 H14 F3 N1 O3 S1

>  <HET>
 TOL  A 320      24

>  <HETNAM>
     TOL TOLRESTAT

>  <Name>
TOL.pdb

>  <RI>
-2.03807e+08

>  <Rbt.Current_Directory>
/home/malgorzata/Desktop/rDOCK_IFD/Wyniki/1_aldose_reductase

>  <Rbt.Executable>
rbdock ($Id: //depot/dev/client3/rdock/2013.1/src/exe/rbdock.cxx#4 $)

>  <Rbt.Library>
libRbt.so (2013.1, Build901 2013/11/27)

>  <Rbt.Parameter_File>
/home/malgorzata/Desktop/rDock_2013.1_src/data/scripts/dock.prm

>  <Rbt.Receptor>
cavity.prm

>  <SCORE>
-41.3671

>  <SCORE.INTER>
-20.8648

>  <SCORE.INTER.CONST>
1

>  <SCORE.INTER.POLAR>
-1.67711

>  <SCORE.INTER.REPUL>
0

>  <SCORE.INTER.ROT>
5

>  <SCORE.INTER.VDW>
-25.5626

>  <SCORE.INTER.norm>
-0.869366

>  <SCORE.INTRA>
-4.56735

>  <SCORE.INTRA.DIHEDRAL>
2.45864

>  <SCORE.INTRA.DIHEDRAL.0>
16.9783

>  <SCORE.INTRA.POLAR>
0

>  <SCORE.INTRA.POLAR.0>
0

>  <SCORE.INTRA.REPUL>
0

>  <SCORE.INTRA.REPUL.0>
0

>  <SCORE.INTRA.VDW>
-5.79667

>  <SCORE.INTRA.VDW.0>
4.87734

>  <SCORE.INTRA.norm>
-0.190306

>  <SCORE.RESTR>
0

>  <SCORE.RESTR.CAVITY>
0

>  <SCORE.RESTR.norm>
0

>  <SCORE.SYSTEM>
-15.9349

>  <SCORE.SYSTEM.CONST>
0

>  <SCORE.SYSTEM.DIHEDRAL>
5.2333

>  <SCORE.SYSTEM.POLAR>
-4.49835

>  <SCORE.SYSTEM.REPUL>
0.0681747

>  <SCORE.SYSTEM.VDW>
-3.59807

>  <SCORE.SYSTEM.norm>
-0.663956

>  <SCORE.heavy>
24

>  <SCORE.norm>
-1.72363

$$$$
TOL.pdb
  rDOCK(R)          3D
libRbt.so/2013.1/901 2013/11/27
 25 26  0  0  0  0  0  0  0  0999 V2000
   16.2078   29.5448   65.9166 C   0  0  0  0  0  0
   15.4905   30.0042   66.9726 F   0  0  0  0  0  0
   15.5793   28.4255   65.4692 F   0  0  0  0  0  0
   16.1369   30.4714   64.9240 F   0  0  0  0  0  0
   17.6769   29.2697   66.3041 C   0  0  0  0  0  0
   18.7575   29.3102   65.3849 C   0  0  0  0  0  0
   18.5266   29.5972   64.1166 O   0  0  0  0  0  0
   18.0976   28.4740   63.3648 C   0  0  0  0  0  0
   20.0656   29.0387   65.8423 C   0  0  0  0  0  0
   20.3056   28.7324   67.1865 C   0  0  0  0  0  0
   19.2352   28.6888   68.1015 C   0  0  0  0  0  0
   19.4909   28.3765   69.4572 C   0  0  0  0  0  0
   18.4234   28.3344   70.3691 C   0  0  0  0  0  0
   17.1192   28.5966   69.9436 C   0  0  0  0  0  0
   16.8712   28.9060   68.6004 C   0  0  0  0  0  0
   17.9230   28.9554   67.6669 C   0  0  0  0  0  0
   20.8677   28.0803   70.0035 C   0  0  0  0  0  0
   21.8444   26.9015   69.2336 S   0  0  0  0  0  0
   21.3116   28.7496   71.0685 N   0  0  0  0  0  0
   20.5040   29.8219   71.6394 C   0  0  0  0  0  0
   22.6045   28.4510   71.6762 C   0  0  0  0  0  0
   22.5060   27.2827   72.6720 C   0  0  0  0  0  0
   22.4112   27.4566   73.8585 O   0  0  0  0  0  0
   22.5258   26.0613   72.1269 O   0  0  0  0  0  0
   22.8585   25.9408   71.2593 H   0  0  0  0  0  0
  1  2  1  0  0  0
  1  3  1  0  0  0
  1  4  1  0  0  0
  1  5  1  0  0  0
  5  6  2  0  0  0
  5 16  1  0  0  0
  6  7  1  0  0  0
  6  9  1  0  0  0
  7  8  1  0  0  0
  9 10  2  0  0  0
 10 11  1  0  0  0
 11 12  2  0  0  0
 11 16  1  0  0  0
 12 13  1  0  0  0
 12 17  1  0  0  0
 13 14  2  0  0  0
 14 15  1  0  0  0
 15 16  2  0  0  0
 17 18  2  0  0  0
 17 19  1  0  0  0
 19 20  1  0  0  0
 19 21  1  0  0  0
 21 22  1  0  0  0
 22 23  2  0  0  0
 22 24  1  0  0  0
 24 25  1  0  0  0
M  END
>  <CHROM.0>
-15.72441893,-58.58603577,-98.08815668,150.74615735,-68.93160240,-38.69171172
126.70608253,79.41321718,-61.18859492,-61.54190337,-70.34941257,-61.41326028
-60.50081437,-99.71505189

>  <CHROM.1>
-153.64462104,-82.62969673,-51.74151257,-84.29560999,-98.38683806,19.20127149
19.23388160,28.57686067,68.38444489,2.25949728,0.32452015,-1.55290348

>  <FORMUL>
      TOL    C16 H14 F3 N1 O3 S1

>  <HET>
 TOL  A 320      24

>  <HETNAM>
     TOL TOLRESTAT

>  <Name>
TOL.pdb

>  <RI>
-2.03807e+08

>  <Rbt.Current_Directory>
/home/malgorzata/Desktop/rDOCK_IFD/Wyniki/1_aldose_reductase

>  <Rbt.Executable>
rbdock ($Id: //depot/dev/client3/rdock/2013.1/src/exe/rbdock.cxx#4 $)

>  <Rbt.Library>
libRbt.so (2013.1, Build901 2013/11/27)

>  <Rbt.Parameter_File>
/home/malgorzata/Desktop/rDock_2013.1_src/data/scripts/dock.prm

>  <Rbt.Receptor>
cavity.prm

>  <SCORE>
-12.6097

>  <SCORE.INTER>
-12.5551

>  <SCORE.INTER.CONST>
1

>  <SCORE.INTER.POLAR>
-0.820079

>  <SCORE.INTER.REPUL>
0.314563

>  <SCORE.INTER.ROT>
5

>  <SCORE.INTER.VDW>
-21.7397

>  <SCORE.INTER.norm>
-0.523129

>  <SCORE.INTRA>
-1.50464

>  <SCORE.INTRA.DIHEDRAL>
2.57252

>  <SCORE.INTRA.DIHEDRAL.0>
16.9783

>  <SCORE.INTRA.POLAR>
-0.216208

>  <SCORE.INTRA.POLAR.0>
0

>  <SCORE.INTRA.REPUL>
0

>  <SCORE.INTRA.REPUL.0>
0

>  <SCORE.INTRA.VDW>
-2.0558

>  <SCORE.INTRA.VDW.0>
4.87734

>  <SCORE.INTRA.norm>
-0.0626935

>  <SCORE.RESTR>
0

>  <SCORE.RESTR.CAVITY>
0

>  <SCORE.RESTR.norm>
0

>  <SCORE.SYSTEM>
1.45009

>  <SCORE.SYSTEM.CONST>
0

>  <SCORE.SYSTEM.DIHEDRAL>
5.82341

>  <SCORE.SYSTEM.POLAR>
-3.09849

>  <SCORE.SYSTEM.VDW>
9.07326

>  <SCORE.SYSTEM.norm>
0.0604206

>  <SCORE.heavy>
24

>  <SCORE.norm>
-0.525402

$$$$
TOL.pdb
  rDOCK(R)          3D
libRbt.so/2013.1/901 2013/11/27
 25 26  0  0  0  0  0  0  0  0999 V2000
   16.9186   28.6152   62.5589 C   0  0  0  0  0  0
   15.8650   29.4700   62.5587 F   0  0  0  0  0  0
   16.7569   27.7886   61.4918 F   0  0  0  0  0  0
   18.0486   29.3393   62.3409 F   0  0  0  0  0  0
   17.0169   27.8349   63.8877 C   0  0  0  0  0  0
   17.0188   26.4183   63.9739 C   0  0  0  0  0  0
   16.9330   25.6960   62.8715 O   0  0  0  0  0  0
   18.1744   25.1317   62.4822 C   0  0  0  0  0  0
   17.1092   25.8022   65.2414 C   0  0  0  0  0  0
   17.1971   26.5712   66.4073 C   0  0  0  0  0  0
   17.1930   27.9777   66.3259 C   0  0  0  0  0  0
   17.2810   28.7436   67.5119 C   0  0  0  0  0  0
   17.2780   30.1457   67.4301 C   0  0  0  0  0  0
   17.1875   30.7815   66.1897 C   0  0  0  0  0  0
   17.1014   30.0188   65.0182 C   0  0  0  0  0  0
   17.1030   28.6126   65.0727 C   0  0  0  0  0  0
   17.3824   28.1405   68.8932 C   0  0  0  0  0  0
   15.9539   27.6719   69.7154 S   0  0  0  0  0  0
   18.5823   27.9667   69.4493 N   0  0  0  0  0  0
   19.7868   28.2744   68.6860 C   0  0  0  0  0  0
   18.7295   27.4542   70.8078 C   0  0  0  0  0  0
   18.9382   28.5912   71.8227 C   0  0  0  0  0  0
   20.0103   28.8218   72.3170 O   0  0  0  0  0  0
   17.8474   29.3096   72.1115 O   0  0  0  0  0  0
   17.8976   30.0077   72.7345 H   0  0  0  0  0  0
  1  2  1  0  0  0
  1  3  1  0  0  0
  1  4  1  0  0  0
  1  5  1  0  0  0
  5  6  2  0  0  0
  5 16  1  0  0  0
  6  7  1  0  0  0
  6  9  1  0  0  0
  7  8  1  0  0  0
  9 10  2  0  0  0
 10 11  1  0  0  0
 11 12  2  0  0  0
 11 16  1  0  0  0
 12 13  1  0  0  0
 12 17  1  0  0  0
 13 14  2  0  0  0
 14 15  1  0  0  0
 15 16  2  0  0  0
 17 18  2  0  0  0
 17 19  1  0  0  0
 19 20  1  0  0  0
 19 21  1  0  0  0
 21 22  1  0  0  0
 22 23  2  0  0  0
 22 24  1  0  0  0
 24 25  1  0  0  0
M  END
>  <CHROM.0>
-6.20982484,43.89532985,-91.80083855,148.25846172,-59.74197355,-178.30581641
130.31036318,-136.01742625,-61.18859492,-61.54190337,-71.78086013,-61.41326028
-60.50081437,-56.37006927

>  <CHROM.1>
123.38862126,103.64198720,-84.41921559,-97.81739525,-105.38155836,178.81428614
17.48512842,28.12708160,66.51974033,2.53217229,1.38582514,-2.61503694

>  <FORMUL>
      TOL    C16 H14 F3 N1 O3 S1

>  <HET>
 TOL  A 320      24

>  <HETNAM>
     TOL TOLRESTAT

>  <Name>
TOL.pdb

>  <RI>
-2.03807e+08

>  <Rbt.Current_Directory>
/home/malgorzata/Desktop/rDOCK_IFD/Wyniki/1_aldose_reductase

>  <Rbt.Executable>
rbdock ($Id: //depot/dev/client3/rdock/2013.1/src/exe/rbdock.cxx#4 $)

>  <Rbt.Library>
libRbt.so (2013.1, Build901 2013/11/27)

>  <Rbt.Parameter_File>
/home/malgorzata/Desktop/rDock_2013.1_src/data/scripts/dock.prm

>  <Rbt.Receptor>
cavity.prm

>  <SCORE>
-27.253

>  <SCORE.INTER>
-7.51071

>  <SCORE.INTER.CONST>
1

>  <SCORE.INTER.POLAR>
-0.970121

>  <SCORE.INTER.REPUL>
0.00456859

>  <SCORE.INTER.ROT>
5

>  <SCORE.INTER.VDW>
-14.6351

>  <SCORE.INTER.norm>
-0.312946

>  <SCORE.INTRA>
-5.33933

>  <SCORE.INTRA.DIHEDRAL>
4.66153

>  <SCORE.INTRA.DIHEDRAL.0>
16.9783

>  <SCORE.INTRA.POLAR>
0

>  <SCORE.INTRA.POLAR.0>
0

>  <SCORE.INTRA.REPUL>
0

>  <SCORE.INTRA.REPUL.0>
0

>  <SCORE.INTRA.VDW>
-7.67009

>  <SCORE.INTRA.VDW.0>
4.87734

>  <SCORE.INTRA.norm>
-0.222472

>  <SCORE.RESTR>
0

>  <SCORE.RESTR.CAVITY>
0

>  <SCORE.RESTR.norm>
0

>  <SCORE.SYSTEM>
-14.403

>  <SCORE.SYSTEM.CONST>
0

>  <SCORE.SYSTEM.DIHEDRAL>
4.68155

>  <SCORE.SYSTEM.POLAR>
-4.45864

>  <SCORE.SYSTEM.REPUL>
0.589117

>  <SCORE.SYSTEM.VDW>
-4.52999

>  <SCORE.SYSTEM.norm>
-0.600125

>  <SCORE.heavy>
24

>  <SCORE.norm>
-1.13554

$$$$
