TOL.pdb
  rDOCK(R)          3D
libRbt.so/2013.1/901 2013/11/27
 25 26  0  0  0  0  0  0  0  0999 V2000
   22.7088   28.6225   73.0249 C   0  0  0  0  0  0
   22.3209   27.7305   73.9708 F   0  0  0  0  0  0
   22.2066   29.8312   73.3921 F   0  0  0  0  0  0
   24.0644   28.7190   73.0675 F   0  0  0  0  0  0
   22.2344   28.2005   71.6174 C   0  0  0  0  0  0
   22.8554   27.1839   70.8460 C   0  0  0  0  0  0
   23.9024   26.5420   71.3318 O   0  0  0  0  0  0
   23.5769   25.7026   72.4274 C   0  0  0  0  0  0
   22.3442   26.8768   69.5659 C   0  0  0  0  0  0
   21.2363   27.5613   69.0536 C   0  0  0  0  0  0
   20.6186   28.5728   69.8154 C   0  0  0  0  0  0
   19.5003   29.2582   69.2857 C   0  0  0  0  0  0
   18.8843   30.2656   70.0461 C   0  0  0  0  0  0
   19.3704   30.5913   71.3144 C   0  0  0  0  0  0
   20.4774   29.9094   71.8349 C   0  0  0  0  0  0
   21.1123   28.8956   71.0936 C   0  0  0  0  0  0
   18.9089   28.9711   67.9256 C   0  0  0  0  0  0
   19.9474   28.8043   66.5729 S   0  0  0  0  0  0
   17.5881   28.8366   67.7971 N   0  0  0  0  0  0
   16.7365   28.8767   68.9807 C   0  0  0  0  0  0
   16.9628   28.6293   66.4948 C   0  0  0  0  0  0
   17.0012   29.9064   65.6382 C   0  0  0  0  0  0
   16.6850   30.9819   66.0744 O   0  0  0  0  0  0
   17.4174   29.7394   64.3779 O   0  0  0  0  0  0
   17.4889   30.4784   63.8063 H   0  0  0  0  0  0
  1  2  1  0  0  0
  1  3  1  0  0  0
  1  4  1  0  0  0
  1  5  1  0  0  0
  5  6  2  0  0  0
  5 16  1  0  0  0
  6  7  1  0  0  0
  6  9  1  0  0  0
  7  8  1  0  0  0
  9 10  2  0  0  0
 10 11  1  0  0  0
 11 12  2  0  0  0
 11 16  1  0  0  0
 12 13  1  0  0  0
 12 17  1  0  0  0
 13 14  2  0  0  0
 14 15  1  0  0  0
 15 16  2  0  0  0
 17 18  2  0  0  0
 17 19  1  0  0  0
 19 20  1  0  0  0
 19 21  1  0  0  0
 21 22  1  0  0  0
 22 23  2  0  0  0
 22 24  1  0  0  0
 24 25  1  0  0  0
M  END
>  <CHROM.0>
-18.51556978,44.04965989,91.15042514,149.31715422,58.68978622,-177.23264178
-132.68076946,80.46153001,-61.18859492,-61.54190337,62.66084619,-61.41326028
-60.50081437,-103.01706879

>  <CHROM.1>
-77.15233117,68.78736172,-45.97062485,-71.74593658,-47.16280484,-178.26960157
20.40537437,28.72243078,69.73783400,0.65422254,-0.63782925,1.16664940

>  <FORMUL>
      TOL    C16 H14 F3 N1 O3 S1

>  <HET>
 TOL  A 320      24

>  <HETNAM>
     TOL TOLRESTAT

>  <Name>
TOL.pdb

>  <RI>
8.1742e+08

>  <Rbt.Current_Directory>
/home/malgorzata/Desktop/rDOCK_IFD/Wyniki/1_aldose_reductase

>  <Rbt.Executable>
rbdock ($Id: //depot/dev/client3/rdock/2013.1/src/exe/rbdock.cxx#4 $)

>  <Rbt.Library>
libRbt.so (2013.1, Build901 2013/11/27)

>  <Rbt.Parameter_File>
/home/malgorzata/Desktop/rDock_2013.1_src/data/scripts/dock.prm

>  <Rbt.Receptor>
cavity.prm

>  <SCORE>
-10.4917

>  <SCORE.INTER>
-15.4007

>  <SCORE.INTER.CONST>
1

>  <SCORE.INTER.POLAR>
-0.64

>  <SCORE.INTER.REPUL>
0

>  <SCORE.INTER.ROT>
5

>  <SCORE.INTER.VDW>
-23.6247

>  <SCORE.INTER.norm>
-0.641696

>  <SCORE.INTRA>
0.610894

>  <SCORE.INTRA.DIHEDRAL>
-1.6807

>  <SCORE.INTRA.DIHEDRAL.0>
16.9783

>  <SCORE.INTRA.POLAR>
0

>  <SCORE.INTRA.POLAR.0>
0

>  <SCORE.INTRA.REPUL>
0

>  <SCORE.INTRA.REPUL.0>
0

>  <SCORE.INTRA.VDW>
1.45124

>  <SCORE.INTRA.VDW.0>
4.87734

>  <SCORE.INTRA.norm>
0.0254539

>  <SCORE.RESTR>
0

>  <SCORE.RESTR.CAVITY>
0

>  <SCORE.RESTR.norm>
0

>  <SCORE.SYSTEM>
4.29807

>  <SCORE.SYSTEM.CONST>
0

>  <SCORE.SYSTEM.DIHEDRAL>
4.40885

>  <SCORE.SYSTEM.POLAR>
-3.15883

>  <SCORE.SYSTEM.REPUL>
0.657292

>  <SCORE.SYSTEM.VDW>
9.54721

>  <SCORE.SYSTEM.norm>
0.179086

>  <SCORE.heavy>
24

>  <SCORE.norm>
-0.437156

$$$$
TOL.pdb
  rDOCK(R)          3D
libRbt.so/2013.1/901 2013/11/27
 25 26  0  0  0  0  0  0  0  0999 V2000
   16.8229   28.3632   62.4442 C   0  0  0  0  0  0
   16.5975   27.4478   61.4685 F   0  0  0  0  0  0
   17.9401   29.0517   62.0894 F   0  0  0  0  0  0
   15.7879   29.2450   62.4419 F   0  0  0  0  0  0
   16.9686   27.6944   63.8283 C   0  0  0  0  0  0
   17.0093   26.2898   64.0268 C   0  0  0  0  0  0
   16.9201   25.4797   62.9875 O   0  0  0  0  0  0
   15.6121   24.9658   62.7977 C   0  0  0  0  0  0
   17.1415   25.7795   65.3369 C   0  0  0  0  0  0
   17.2331   26.6414   66.4357 C   0  0  0  0  0  0
   17.1905   28.0363   66.2428 C   0  0  0  0  0  0
   17.2825   28.8967   67.3619 C   0  0  0  0  0  0
   17.2413   30.2872   67.1689 C   0  0  0  0  0  0
   17.1089   30.8192   65.8842 C   0  0  0  0  0  0
   17.0189   29.9633   64.7793 C   0  0  0  0  0  0
   17.0584   28.5665   64.9455 C   0  0  0  0  0  0
   17.4277   28.4087   68.7841 C   0  0  0  0  0  0
   16.0505   27.8248   69.6198 S   0  0  0  0  0  0
   18.6278   28.4247   69.3664 N   0  0  0  0  0  0
   19.8012   28.8256   68.5983 C   0  0  0  0  0  0
   18.8077   28.0305   70.7601 C   0  0  0  0  0  0
   19.3067   26.5802   70.8787 C   0  0  0  0  0  0
   18.5859   25.6790   71.2181 O   0  0  0  0  0  0
   20.5946   26.3898   70.5713 O   0  0  0  0  0  0
   21.1261   27.1159   70.3101 H   0  0  0  0  0  0
  1  2  1  0  0  0
  1  3  1  0  0  0
  1  4  1  0  0  0
  1  5  1  0  0  0
  5  6  2  0  0  0
  5 16  1  0  0  0
  6  7  1  0  0  0
  6  9  1  0  0  0
  7  8  1  0  0  0
  9 10  2  0  0  0
 10 11  1  0  0  0
 11 12  2  0  0  0
 11 16  1  0  0  0
 12 13  1  0  0  0
 12 17  1  0  0  0
 13 14  2  0  0  0
 14 15  1  0  0  0
 15 16  2  0  0  0
 17 18  2  0  0  0
 17 19  1  0  0  0
 19 20  1  0  0  0
 19 21  1  0  0  0
 21 22  1  0  0  0
 22 23  2  0  0  0
 22 24  1  0  0  0
 24 25  1  0  0  0
M  END
>  <CHROM.0>
-12.85301819,42.01219322,-96.32875965,146.77794673,179.43733139,62.95826486
-131.01923696,-137.30852331,-61.18859492,-61.54190337,-70.23439130,-61.41326028
-60.50081437,-74.95871910

>  <CHROM.1>
6.51180204,-98.65497186,-78.32615651,98.79181190,-104.83812282,0.30588669
17.44335517,27.79863135,66.29858419,3.08908309,1.32231841,-3.04353961

>  <FORMUL>
      TOL    C16 H14 F3 N1 O3 S1

>  <HET>
 TOL  A 320      24

>  <HETNAM>
     TOL TOLRESTAT

>  <Name>
TOL.pdb

>  <RI>
8.1742e+08

>  <Rbt.Current_Directory>
/home/malgorzata/Desktop/rDOCK_IFD/Wyniki/1_aldose_reductase

>  <Rbt.Executable>
rbdock ($Id: //depot/dev/client3/rdock/2013.1/src/exe/rbdock.cxx#4 $)

>  <Rbt.Library>
libRbt.so (2013.1, Build901 2013/11/27)

>  <Rbt.Parameter_File>
/home/malgorzata/Desktop/rDock_2013.1_src/data/scripts/dock.prm

>  <Rbt.Receptor>
cavity.prm

>  <SCORE>
-26.728

>  <SCORE.INTER>
-6.96794

>  <SCORE.INTER.CONST>
1

>  <SCORE.INTER.POLAR>
-0.916515

>  <SCORE.INTER.REPUL>
0

>  <SCORE.INTER.ROT>
5

>  <SCORE.INTER.VDW>
-14.2518

>  <SCORE.INTER.norm>
-0.290331

>  <SCORE.INTRA>
-4.49001

>  <SCORE.INTRA.DIHEDRAL>
4.51166

>  <SCORE.INTRA.DIHEDRAL.0>
16.9783

>  <SCORE.INTRA.POLAR>
0

>  <SCORE.INTRA.POLAR.0>
0

>  <SCORE.INTRA.REPUL>
0

>  <SCORE.INTRA.REPUL.0>
0

>  <SCORE.INTRA.VDW>
-6.74584

>  <SCORE.INTRA.VDW.0>
4.87734

>  <SCORE.INTRA.norm>
-0.187084

>  <SCORE.RESTR>
0

>  <SCORE.RESTR.CAVITY>
0

>  <SCORE.RESTR.norm>
0

>  <SCORE.SYSTEM>
-15.2701

>  <SCORE.SYSTEM.CONST>
0

>  <SCORE.SYSTEM.DIHEDRAL>
5.15497

>  <SCORE.SYSTEM.POLAR>
-3.87807

>  <SCORE.SYSTEM.VDW>
-4.66211

>  <SCORE.SYSTEM.norm>
-0.636253

>  <SCORE.heavy>
24

>  <SCORE.norm>
-1.11367

$$$$
TOL.pdb
  rDOCK(R)          3D
libRbt.so/2013.1/901 2013/11/27
 25 26  0  0  0  0  0  0  0  0999 V2000
   16.2612   30.0206   65.1338 C   0  0  0  0  0  0
   15.9903   31.3157   65.4339 F   0  0  0  0  0  0
   15.1594   29.2985   65.4695 F   0  0  0  0  0  0
   16.4123   29.9232   63.7860 F   0  0  0  0  0  0
   17.5269   29.5210   65.8636 C   0  0  0  0  0  0
   18.7287   29.1573   65.2022 C   0  0  0  0  0  0
   18.8016   29.2399   63.8861 O   0  0  0  0  0  0
   18.4690   28.0240   63.2365 C   0  0  0  0  0  0
   19.8295   28.7083   65.9643 C   0  0  0  0  0  0
   19.7473   28.6197   67.3586 C   0  0  0  0  0  0
   18.5551   28.9775   68.0185 C   0  0  0  0  0  0
   18.4844   28.8820   69.4281 C   0  0  0  0  0  0
   17.2960   29.2400   70.0855 C   0  0  0  0  0  0
   16.1911   29.6853   69.3563 C   0  0  0  0  0  0
   16.2662   29.7788   67.9610 C   0  0  0  0  0  0
   17.4453   29.4269   67.2782 C   0  0  0  0  0  0
   19.6290   28.4117   70.2944 C   0  0  0  0  0  0
   20.2563   26.8319   70.0781 S   0  0  0  0  0  0
   20.1466   29.2363   71.2063 N   0  0  0  0  0  0
   19.6661   30.6106   71.2971 C   0  0  0  0  0  0
   21.2048   28.8061   72.1146 C   0  0  0  0  0  0
   22.5765   28.7889   71.4185 C   0  0  0  0  0  0
   22.7249   28.3648   70.3027 O   0  0  0  0  0  0
   23.5904   29.2844   72.1367 O   0  0  0  0  0  0
   23.4381   29.6024   73.0049 H   0  0  0  0  0  0
  1  2  1  0  0  0
  1  3  1  0  0  0
  1  4  1  0  0  0
  1  5  1  0  0  0
  5  6  2  0  0  0
  5 16  1  0  0  0
  6  7  1  0  0  0
  6  9  1  0  0  0
  7  8  1  0  0  0
  9 10  2  0  0  0
 10 11  1  0  0  0
 11 12  2  0  0  0
 11 16  1  0  0  0
 12 13  1  0  0  0
 12 17  1  0  0  0
 13 14  2  0  0  0
 14 15  1  0  0  0
 15 16  2  0  0  0
 17 18  2  0  0  0
 17 19  1  0  0  0
 19 20  1  0  0  0
 19 21  1  0  0  0
 21 22  1  0  0  0
 22 23  2  0  0  0
 22 24  1  0  0  0
 24 25  1  0  0  0
M  END
>  <CHROM.0>
-9.79334333,43.16746844,-99.69249442,147.85121746,59.13845874,62.33955536
-129.34694224,-135.61845840,-61.18859492,-61.54190337,-67.53428523,-61.41326028
-60.50081437,133.08513608

>  <CHROM.1>
-113.81843360,-92.97665324,-60.67741192,78.07943666,-42.41170851,0.65075932
18.82363602,29.09610149,68.01582199,2.23910740,0.33429190,-1.67207536

>  <FORMUL>
      TOL    C16 H14 F3 N1 O3 S1

>  <HET>
 TOL  A 320      24

>  <HETNAM>
     TOL TOLRESTAT

>  <Name>
TOL.pdb

>  <RI>
8.1742e+08

>  <Rbt.Current_Directory>
/home/malgorzata/Desktop/rDOCK_IFD/Wyniki/1_aldose_reductase

>  <Rbt.Executable>
rbdock ($Id: //depot/dev/client3/rdock/2013.1/src/exe/rbdock.cxx#4 $)

>  <Rbt.Library>
libRbt.so (2013.1, Build901 2013/11/27)

>  <Rbt.Parameter_File>
/home/malgorzata/Desktop/rDock_2013.1_src/data/scripts/dock.prm

>  <Rbt.Receptor>
cavity.prm

>  <SCORE>
-37.0824

>  <SCORE.INTER>
-17.7945

>  <SCORE.INTER.CONST>
1

>  <SCORE.INTER.POLAR>
-0.788917

>  <SCORE.INTER.REPUL>
0

>  <SCORE.INTER.ROT>
5

>  <SCORE.INTER.VDW>
-25.5122

>  <SCORE.INTER.norm>
-0.741439

>  <SCORE.INTRA>
-4.47007

>  <SCORE.INTRA.DIHEDRAL>
2.10583

>  <SCORE.INTRA.DIHEDRAL.0>
16.9783

>  <SCORE.INTRA.POLAR>
0

>  <SCORE.INTRA.POLAR.0>
0

>  <SCORE.INTRA.REPUL>
0

>  <SCORE.INTRA.REPUL.0>
0

>  <SCORE.INTRA.VDW>
-5.52299

>  <SCORE.INTRA.VDW.0>
4.87734

>  <SCORE.INTRA.norm>
-0.186253

>  <SCORE.RESTR>
0

>  <SCORE.RESTR.CAVITY>
0

>  <SCORE.RESTR.norm>
0

>  <SCORE.SYSTEM>
-14.8178

>  <SCORE.SYSTEM.CONST>
0

>  <SCORE.SYSTEM.DIHEDRAL>
4.57347

>  <SCORE.SYSTEM.POLAR>
-3.82902

>  <SCORE.SYSTEM.REPUL>
0.00167752

>  <SCORE.SYSTEM.VDW>
-4.0943

>  <SCORE.SYSTEM.norm>
-0.61741

>  <SCORE.heavy>
24

>  <SCORE.norm>
-1.5451

$$$$
TOL.pdb
  rDOCK(R)          3D
libRbt.so/2013.1/901 2013/11/27
 25 26  0  0  0  0  0  0  0  0999 V2000
   24.5925   23.9368   74.8914 C   0  0  0  0  0  0
   25.8184   23.9311   74.3100 F   0  0  0  0  0  0
   24.2886   25.2345   75.1595 F   0  0  0  0  0  0
   23.6903   23.4918   73.9766 F   0  0  0  0  0  0
   24.5619   23.0593   76.1615 C   0  0  0  0  0  0
   24.2240   23.5468   77.4508 C   0  0  0  0  0  0
   23.9123   24.8206   77.6073 O   0  0  0  0  0  0
   24.9457   25.5709   78.2239 C   0  0  0  0  0  0
   24.2299   22.6597   78.5495 C   0  0  0  0  0  0
   24.5633   21.3111   78.3799 C   0  0  0  0  0  0
   24.9017   20.8240   77.1020 C   0  0  0  0  0  0
   25.2383   19.4592   76.9441 C   0  0  0  0  0  0
   25.5743   18.9740   75.6697 C   0  0  0  0  0  0
   25.5787   19.8297   74.5658 C   0  0  0  0  0  0
   25.2441   21.1801   74.7270 C   0  0  0  0  0  0
   24.9030   21.6911   75.9930 C   0  0  0  0  0  0
   25.2589   18.4645   78.0808 C   0  0  0  0  0  0
   26.3179   18.7181   79.4038 S   0  0  0  0  0  0
   24.4429   17.4098   78.0477 N   0  0  0  0  0  0
   23.4765   17.2744   76.9636 C   0  0  0  0  0  0
   24.4748   16.3843   79.0857 C   0  0  0  0  0  0
   23.8120   16.8727   80.3851 C   0  0  0  0  0  0
   22.7293   17.3968   80.3959 O   0  0  0  0  0  0
   24.5192   16.6677   81.5019 O   0  0  0  0  0  0
   24.1784   16.9444   82.3297 H   0  0  0  0  0  0
  1  2  1  0  0  0
  1  3  1  0  0  0
  1  4  1  0  0  0
  1  5  1  0  0  0
  5  6  2  0  0  0
  5 16  1  0  0  0
  6  7  1  0  0  0
  6  9  1  0  0  0
  7  8  1  0  0  0
  9 10  2  0  0  0
 10 11  1  0  0  0
 11 12  2  0  0  0
 11 16  1  0  0  0
 12 13  1  0  0  0
 12 17  1  0  0  0
 13 14  2  0  0  0
 14 15  1  0  0  0
 15 16  2  0  0  0
 17 18  2  0  0  0
 17 19  1  0  0  0
 19 20  1  0  0  0
 19 21  1  0  0  0
 21 22  1  0  0  0
 22 23  2  0  0  0
 22 24  1  0  0  0
 24 25  1  0  0  0
M  END
>  <CHROM.0>
-17.52477041,42.29400154,-102.23025241,151.14970905,-60.31751199,60.81307677
126.17591359,-138.40473660,-61.18859492,-61.54190337,-68.11546969,-61.41326028
-60.50081437,101.72357336

>  <CHROM.1>
121.27334197,-105.23426008,-60.67660775,75.24902468,48.98224275,179.65339478
24.69388918,20.78370947,77.30347787,-1.46842008,-1.42892774,2.71692255

>  <FORMUL>
      TOL    C16 H14 F3 N1 O3 S1

>  <HET>
 TOL  A 320      24

>  <HETNAM>
     TOL TOLRESTAT

>  <Name>
TOL.pdb

>  <RI>
8.1742e+08

>  <Rbt.Current_Directory>
/home/malgorzata/Desktop/rDOCK_IFD/Wyniki/1_aldose_reductase

>  <Rbt.Executable>
rbdock ($Id: //depot/dev/client3/rdock/2013.1/src/exe/rbdock.cxx#4 $)

>  <Rbt.Library>
libRbt.so (2013.1, Build901 2013/11/27)

>  <Rbt.Parameter_File>
/home/malgorzata/Desktop/rDock_2013.1_src/data/scripts/dock.prm

>  <Rbt.Receptor>
cavity.prm

>  <SCORE>
-26.1792

>  <SCORE.INTER>
-3.12089

>  <SCORE.INTER.CONST>
1

>  <SCORE.INTER.POLAR>
-0.236836

>  <SCORE.INTER.REPUL>
0.460074

>  <SCORE.INTER.ROT>
5

>  <SCORE.INTER.VDW>
-15.016

>  <SCORE.INTER.norm>
-0.130037

>  <SCORE.INTRA>
-5.58675

>  <SCORE.INTRA.DIHEDRAL>
1.7703

>  <SCORE.INTRA.DIHEDRAL.0>
16.9783

>  <SCORE.INTRA.POLAR>
0

>  <SCORE.INTRA.POLAR.0>
0

>  <SCORE.INTRA.REPUL>
0

>  <SCORE.INTRA.REPUL.0>
0

>  <SCORE.INTRA.VDW>
-6.4719

>  <SCORE.INTRA.VDW.0>
4.87734

>  <SCORE.INTRA.norm>
-0.232781

>  <SCORE.RESTR>
0

>  <SCORE.RESTR.CAVITY>
0

>  <SCORE.RESTR.norm>
0

>  <SCORE.SYSTEM>
-17.4716

>  <SCORE.SYSTEM.CONST>
0

>  <SCORE.SYSTEM.DIHEDRAL>
4.71673

>  <SCORE.SYSTEM.POLAR>
-4.53637

>  <SCORE.SYSTEM.VDW>
-4.40629

>  <SCORE.SYSTEM.norm>
-0.727983

>  <SCORE.heavy>
24

>  <SCORE.norm>
-1.0908

$$$$
TOL.pdb
  rDOCK(R)          3D
libRbt.so/2013.1/901 2013/11/27
 25 26  0  0  0  0  0  0  0  0999 V2000
   25.7197   16.4041   77.3037 C   0  0  0  0  0  0
   25.1515   15.7919   76.2346 F   0  0  0  0  0  0
   24.7258   16.6317   78.2029 F   0  0  0  0  0  0
   26.5896   15.5301   77.8766 F   0  0  0  0  0  0
   26.4420   17.7063   76.8954 C   0  0  0  0  0  0
   27.8248   17.9434   77.1093 C   0  0  0  0  0  0
   28.5652   17.0160   77.6889 O   0  0  0  0  0  0
   28.8052   17.2782   79.0617 C   0  0  0  0  0  0
   28.3876   19.1724   76.7007 C   0  0  0  0  0  0
   27.5990   20.1536   76.0892 C   0  0  0  0  0  0
   26.2253   19.9229   75.8774 C   0  0  0  0  0  0
   25.4388   20.9233   75.2597 C   0  0  0  0  0  0
   24.0698   20.6922   75.0477 C   0  0  0  0  0  0
   23.4865   19.4865   75.4439 C   0  0  0  0  0  0
   24.2695   18.4988   76.0544 C   0  0  0  0  0  0
   25.6436   18.7051   76.2777 C   0  0  0  0  0  0
   25.9859   22.2542   74.7999 C   0  0  0  0  0  0
   27.1172   22.3017   73.5138 S   0  0  0  0  0  0
   25.5711   23.3760   75.3904 N   0  0  0  0  0  0
   24.5286   23.3167   76.4090 C   0  0  0  0  0  0
   26.1214   24.6791   75.0308 C   0  0  0  0  0  0
   25.1920   25.4411   74.0707 C   0  0  0  0  0  0
   24.5430   26.3904   74.4236 O   0  0  0  0  0  0
   25.1612   24.9798   72.8154 O   0  0  0  0  0  0
   25.6978   24.2517   72.5706 H   0  0  0  0  0  0
  1  2  1  0  0  0
  1  3  1  0  0  0
  1  4  1  0  0  0
  1  5  1  0  0  0
  5  6  2  0  0  0
  5 16  1  0  0  0
  6  7  1  0  0  0
  6  9  1  0  0  0
  7  8  1  0  0  0
  9 10  2  0  0  0
 10 11  1  0  0  0
 11 12  2  0  0  0
 11 16  1  0  0  0
 12 13  1  0  0  0
 12 17  1  0  0  0
 13 14  2  0  0  0
 14 15  1  0  0  0
 15 16  2  0  0  0
 17 18  2  0  0  0
 17 19  1  0  0  0
 19 20  1  0  0  0
 19 21  1  0  0  0
 21 22  1  0  0  0
 22 23  2  0  0  0
 22 24  1  0  0  0
 24 25  1  0  0  0
M  END
>  <CHROM.0>
-11.64083739,43.46358554,-98.27189952,150.56348356,-61.59173143,-179.35804677
128.32405431,-139.32233857,-61.18859492,-61.54190337,-173.46464794,-61.41326028
-60.50081437,118.08743925

>  <CHROM.1>
-120.95582965,-100.70781738,66.18073068,99.82714950,107.18864401,-1.28028462
26.01019276,20.19833292,75.90531905,1.43416861,0.15818988,2.76008587

>  <FORMUL>
      TOL    C16 H14 F3 N1 O3 S1

>  <HET>
 TOL  A 320      24

>  <HETNAM>
     TOL TOLRESTAT

>  <Name>
TOL.pdb

>  <RI>
8.1742e+08

>  <Rbt.Current_Directory>
/home/malgorzata/Desktop/rDOCK_IFD/Wyniki/1_aldose_reductase

>  <Rbt.Executable>
rbdock ($Id: //depot/dev/client3/rdock/2013.1/src/exe/rbdock.cxx#4 $)

>  <Rbt.Library>
libRbt.so (2013.1, Build901 2013/11/27)

>  <Rbt.Parameter_File>
/home/malgorzata/Desktop/rDock_2013.1_src/data/scripts/dock.prm

>  <Rbt.Receptor>
cavity.prm

>  <SCORE>
-20.693

>  <SCORE.INTER>
-0.942944

>  <SCORE.INTER.CONST>
1

>  <SCORE.INTER.POLAR>
0

>  <SCORE.INTER.REPUL>
0.00256225

>  <SCORE.INTER.ROT>
5

>  <SCORE.INTER.VDW>
-11.3558

>  <SCORE.INTER.norm>
-0.0392893

>  <SCORE.INTRA>
-5.083

>  <SCORE.INTRA.DIHEDRAL>
2.83653

>  <SCORE.INTRA.DIHEDRAL.0>
16.9783

>  <SCORE.INTRA.POLAR>
-0.133152

>  <SCORE.INTRA.POLAR.0>
0

>  <SCORE.INTRA.REPUL>
0

>  <SCORE.INTRA.REPUL.0>
0

>  <SCORE.INTRA.VDW>
-6.04855

>  <SCORE.INTRA.VDW.0>
4.87734

>  <SCORE.INTRA.norm>
-0.211792

>  <SCORE.RESTR>
0

>  <SCORE.RESTR.CAVITY>
0

>  <SCORE.RESTR.norm>
0

>  <SCORE.SYSTEM>
-14.6671

>  <SCORE.SYSTEM.CONST>
0

>  <SCORE.SYSTEM.DIHEDRAL>
4.25458

>  <SCORE.SYSTEM.POLAR>
-4.52013

>  <SCORE.SYSTEM.REPUL>
0.589117

>  <SCORE.SYSTEM.VDW>
-4.37147

>  <SCORE.SYSTEM.norm>
-0.611127

>  <SCORE.heavy>
24

>  <SCORE.norm>
-0.862208

$$$$
