pose1.pdb
 OpenBabel02012120573D

 25 26  0  0  0  0  0  0  0  0999 V2000
   22.2860   28.8500   72.8390 C   0  0  0  0  0  0  0  0  0  0  0  0
   22.7940   27.8190   73.5590 F   0  0  0  0  0  0  0  0  0  0  0  0
   21.4410   29.5280   73.6610 F   0  0  0  0  0  0  0  0  0  0  0  0
   23.3080   29.6910   72.5280 F   0  0  0  0  0  0  0  0  0  0  0  0
   21.5760   28.3550   71.5600 C   0  0  0  0  0  0  0  0  0  0  0  0
   21.8400   27.1040   70.9440 C   0  0  0  0  0  0  0  0  0  0  0  0
   22.7380   26.2920   71.4710 O   0  0  0  0  0  0  0  0  0  0  0  0
   24.0530   26.5420   71.0020 C   0  0  0  0  0  0  0  0  0  0  0  0
   21.1370   26.7470   69.7720 C   0  0  0  0  0  0  0  0  0  0  0  0
   20.1880   27.6120   69.2150 C   0  0  0  0  0  0  0  0  0  0  0  0
   19.9260   28.8560   69.8220 C   0  0  0  0  0  0  0  0  0  0  0  0
   18.9650   29.7210   69.2480 C   0  0  0  0  0  0  0  0  0  0  0  0
   18.7030   30.9610   69.8540 C   0  0  0  0  0  0  0  0  0  0  0  0
   19.3840   31.3400   71.0130 C   0  0  0  0  0  0  0  0  0  0  0  0
   20.3340   30.4790   71.5780 C   0  0  0  0  0  0  0  0  0  0  0  0
   20.6150   29.2310   70.9900 C   0  0  0  0  0  0  0  0  0  0  0  0
   18.1820   29.3930   67.9990 C   0  0  0  0  0  0  0  0  0  0  0  0
   17.0050   28.1480   68.0440 S   0  0  0  0  0  0  0  0  0  0  0  0
   18.4050   30.0850   66.8800 N   0  0  0  0  0  0  0  0  0  0  0  0
   19.3350   31.2090   66.8970 C   0  0  0  0  0  0  0  0  0  0  0  0
   17.7260   29.7590   65.6300 C   0  0  0  0  0  0  0  0  0  0  0  0
   16.3250   30.3910   65.5660 C   0  0  0  0  0  0  0  0  0  0  0  0
   15.3350   29.7920   65.8950 O   0  0  0  0  0  0  0  0  0  0  0  0
   16.2850   31.6540   65.1260 O   0  0  0  0  0  0  0  0  0  0  0  0
   15.4590   32.0720   64.9770 H   0  0  0  0  0  0  0  0  0  0  0  0
  1  2  1  0  0  0  0
  1  3  1  0  0  0  0
  1  4  1  0  0  0  0
  1  5  1  0  0  0  0
  5  6  2  0  0  0  0
  5 16  1  0  0  0  0
  6  7  1  0  0  0  0
  6  9  1  0  0  0  0
  7  8  1  0  0  0  0
  9 10  2  0  0  0  0
 10 11  1  0  0  0  0
 11 12  2  0  0  0  0
 11 16  1  0  0  0  0
 12 13  1  0  0  0  0
 12 17  1  0  0  0  0
 13 14  2  0  0  0  0
 14 15  1  0  0  0  0
 15 16  2  0  0  0  0
 17 18  2  0  0  0  0
 17 19  1  0  0  0  0
 19 20  1  0  0  0  0
 19 21  1  0  0  0  0
 21 22  1  0  0  0  0
 22 23  2  0  0  0  0
 22 24  1  0  0  0  0
 24 25  1  0  0  0  0
M  END
