pose3.pdb
 OpenBabel02022111263D

 25 26  0  0  0  0  0  0  0  0999 V2000
   15.6990   29.8670   64.7910 C   0  0  0  0  0  0  0  0  0  0  0  0
   14.5210   29.5280   65.3730 F   0  0  0  0  0  0  0  0  0  0  0  0
   15.4960   29.8500   63.4470 F   0  0  0  0  0  0  0  0  0  0  0  0
   15.9880   31.1490   65.1400 F   0  0  0  0  0  0  0  0  0  0  0  0
   16.8370   28.9150   65.2180 C   0  0  0  0  0  0  0  0  0  0  0  0
   17.4750   28.0010   64.3380 C   0  0  0  0  0  0  0  0  0  0  0  0
   17.0960   27.9380   63.0740 O   0  0  0  0  0  0  0  0  0  0  0  0
   18.1820   27.7580   62.1800 C   0  0  0  0  0  0  0  0  0  0  0  0
   18.5050   27.1700   64.8300 C   0  0  0  0  0  0  0  0  0  0  0  0
   18.9010   27.2390   66.1710 C   0  0  0  0  0  0  0  0  0  0  0  0
   18.2690   28.1420   67.0480 C   0  0  0  0  0  0  0  0  0  0  0  0
   18.6780   28.2000   68.4000 C   0  0  0  0  0  0  0  0  0  0  0  0
   18.0490   29.1020   69.2740 C   0  0  0  0  0  0  0  0  0  0  0  0
   17.0260   29.9340   68.8140 C   0  0  0  0  0  0  0  0  0  0  0  0
   16.6240   29.8730   67.4740 C   0  0  0  0  0  0  0  0  0  0  0  0
   17.2400   28.9790   66.5780 C   0  0  0  0  0  0  0  0  0  0  0  0
   19.7750   27.3390   68.9820 C   0  0  0  0  0  0  0  0  0  0  0  0
   19.3620   26.0150   69.9890 S   0  0  0  0  0  0  0  0  0  0  0  0
   21.0480   27.6100   68.6930 N   0  0  0  0  0  0  0  0  0  0  0  0
   21.3670   28.6760   67.7490 C   0  0  0  0  0  0  0  0  0  0  0  0
   22.1460   26.8520   69.2860 C   0  0  0  0  0  0  0  0  0  0  0  0
   22.1260   26.9340   70.8220 C   0  0  0  0  0  0  0  0  0  0  0  0
   21.7120   27.8990   71.4080 O   0  0  0  0  0  0  0  0  0  0  0  0
   22.5940   25.8550   71.4590 O   0  0  0  0  0  0  0  0  0  0  0  0
   22.6290   25.0290   71.0190 H   0  0  0  0  0  0  0  0  0  0  0  0
  1  2  1  0  0  0  0
  1  3  1  0  0  0  0
  1  4  1  0  0  0  0
  1  5  1  0  0  0  0
  5  6  2  0  0  0  0
  5 16  1  0  0  0  0
  6  7  1  0  0  0  0
  6  9  1  0  0  0  0
  7  8  1  0  0  0  0
  9 10  2  0  0  0  0
 10 11  1  0  0  0  0
 11 12  2  0  0  0  0
 11 16  1  0  0  0  0
 12 13  1  0  0  0  0
 12 17  1  0  0  0  0
 13 14  2  0  0  0  0
 14 15  1  0  0  0  0
 15 16  2  0  0  0  0
 17 18  2  0  0  0  0
 17 19  1  0  0  0  0
 19 20  1  0  0  0  0
 19 21  1  0  0  0  0
 21 22  1  0  0  0  0
 22 23  2  0  0  0  0
 22 24  1  0  0  0  0
 24 25  1  0  0  0  0
M  END
