@<TRIPOS>MOLECULE
pose2.pdb
 38 39 0 0 0
SMALL
GASTEIGER

@<TRIPOS>ATOM
      1  C1        17.4280   29.5670   68.7770 C.3     1  LIG1        0.4213
      2  F1        16.7790   29.0470   67.7040 F       1  LIG1       -0.1657
      3  F2        17.5890   30.8950   68.5360 F       1  LIG1       -0.1657
      4  F3        16.6140   29.4480   69.8600 F       1  LIG1       -0.1657
      5  C2        18.7760   28.8550   69.0250 C.ar    1  LIG1        0.1040
      6  C3        19.3200   27.8710   68.1590 C.ar    1  LIG1        0.1324
      7  O1        18.6610   27.5210   67.0700 O.3     1  LIG1       -0.4945
      8  C4        19.0570   28.2570   65.9240 C.3     1  LIG1        0.0788
      9  C5        20.5610   27.2770   68.4800 C.ar    1  LIG1       -0.0188
     10  C6        21.2550   27.6490   69.6370 C.ar    1  LIG1       -0.0499
     11  C7        20.7160   28.6230   70.5000 C.ar    1  LIG1       -0.0077
     12  C8        21.4270   28.9890   71.6670 C.ar    1  LIG1        0.0110
     13  C9        20.8900   29.9620   72.5260 C.ar    1  LIG1       -0.0517
     14  C10       19.6640   30.5640   72.2340 C.ar    1  LIG1       -0.0605
     15  C11       18.9640   30.1990   71.0770 C.ar    1  LIG1       -0.0533
     16  C12       19.4810   29.2270   70.2000 C.ar    1  LIG1       -0.0021
     17  C13       22.7570   28.3910   72.0600 C.2     1  LIG1        0.0828
     18  S1        24.2020   29.2390   71.7010 S.2     1  LIG1       -0.0348
     19  N1        22.7910   27.2180   72.6940 N.am    1  LIG1       -0.3162
     20  C14       21.5440   26.5680   73.0830 C.3     1  LIG1        0.0017
     21  C15       24.0520   26.5650   73.0310 C.3     1  LIG1        0.1095
     22  C16       23.8870   25.0400   73.1440 C.2     1  LIG1        0.3222
     23  O2        24.1020   24.4450   74.1680 O.2     1  LIG1       -0.2492
     24  O3        23.4830   24.4220   72.0290 O.3     1  LIG1       -0.4795
     25  H1        22.9700   23.6400   72.0860 H       1  LIG1        0.2951
     26 H          18.4907   27.9303   65.0770 H       1  LIG1        0.0660
     27 H          20.0988   28.0969   65.7397 H       1  LIG1        0.0660
     28 H          18.8803   29.2991   66.0907 H       1  LIG1        0.0660
     29 H          20.9605   26.5604   67.8540 H       1  LIG1        0.0654
     30 H          22.1622   27.2094   69.8580 H       1  LIG1        0.0625
     31 H          21.4046   30.2338   73.3783 H       1  LIG1        0.0624
     32 H          19.2742   31.2771   72.8701 H       1  LIG1        0.0618
     33 H          18.0591   30.6477   70.8652 H       1  LIG1        0.0624
     34 H          20.7158   27.1671   72.7668 H       1  LIG1        0.0428
     35 H          21.5172   26.4554   74.1467 H       1  LIG1        0.0428
     36 H          21.4845   25.6048   72.6208 H       1  LIG1        0.0428
     37 H          24.4014   26.9469   73.9675 H       1  LIG1        0.0579
     38 H          24.7539   26.7688   72.2495 H       1  LIG1        0.0579
@<TRIPOS>BOND
     1     1     2    1
     2     1     3    1
     3     1     4    1
     4     1     5    1
     5     5     6   ar
     6     5    16   ar
     7     6     7    1
     8     6     9   ar
     9     7     8    1
    10     9    10   ar
    11    10    11   ar
    12    11    12   ar
    13    11    16   ar
    14    12    13   ar
    15    12    17    1
    16    13    14   ar
    17    14    15   ar
    18    15    16   ar
    19    17    18    2
    20    17    19    1
    21    19    20    1
    22    19    21    1
    23    21    22    1
    24    22    23    2
    25    22    24    1
    26    24    25    1
    27     8    26    1
    28     8    27    1
    29     8    28    1
    30     9    29    1
    31    10    30    1
    32    13    31    1
    33    14    32    1
    34    15    33    1
    35    20    34    1
    36    20    35    1
    37    20    36    1
    38    21    37    1
    39    21    38    1
