@<TRIPOS>MOLECULE
pose8.pdb
 38 39 0 0 0
SMALL
GASTEIGER

@<TRIPOS>ATOM
      1  C1        19.2410   29.7350   72.6600 C.3     1  LIG1        0.4213
      2  F1        19.4160   31.0680   72.4740 F       1  LIG1       -0.1657
      3  F2        20.0740   29.3650   73.6680 F       1  LIG1       -0.1657
      4  F3        17.9680   29.5340   73.0930 F       1  LIG1       -0.1657
      5  C2        19.5100   28.9410   71.3640 C.ar    1  LIG1        0.1040
      6  C3        20.4270   27.8620   71.2740 C.ar    1  LIG1        0.1324
      7  O1        21.1060   27.4900   72.3440 O.3     1  LIG1       -0.4945
      8  C4        22.3790   28.1080   72.4340 C.3     1  LIG1        0.0788
      9  C5        20.6020   27.2030   70.0370 C.ar    1  LIG1       -0.0188
     10  C6        19.8830   27.6010   68.9050 C.ar    1  LIG1       -0.0499
     11  C7        18.9730   28.6740   68.9890 C.ar    1  LIG1       -0.0077
     12  C8        18.2530   29.0680   67.8370 C.ar    1  LIG1        0.0110
     13  C9        17.3460   30.1370   67.9220 C.ar    1  LIG1       -0.0517
     14  C10       17.1550   30.8080   69.1320 C.ar    1  LIG1       -0.0605
     15  C11       17.8690   30.4130   70.2700 C.ar    1  LIG1       -0.0533
     16  C12       18.7840   29.3460   70.2120 C.ar    1  LIG1       -0.0021
     17  C13       18.3970   28.4000   66.4900 C.2     1  LIG1        0.0828
     18  S1        17.2260   27.2540   65.9890 S.2     1  LIG1       -0.0348
     19  N1        19.4240   28.7200   65.7020 N.am    1  LIG1       -0.3162
     20  C14       20.3470   29.7760   66.1070 C.3     1  LIG1        0.0017
     21  C15       19.6460   28.0520   64.4240 C.3     1  LIG1        0.1095
     22  C16       18.8280   28.7030   63.2950 C.2     1  LIG1        0.3222
     23  O2        18.5070   28.1000   62.3050 O.2     1  LIG1       -0.2492
     24  O3        18.4940   29.9830   63.4940 O.3     1  LIG1       -0.4795
     25  H1        18.1480   30.4920   62.7880 H       1  LIG1        0.2951
     26 H          22.8787   27.7685   73.3172 H       1  LIG1        0.0660
     27 H          22.2575   29.1701   72.4789 H       1  LIG1        0.0660
     28 H          22.9615   27.8517   71.5738 H       1  LIG1        0.0660
     29 H          21.2685   26.4182   69.9675 H       1  LIG1        0.0654
     30 H          20.0189   27.1088   68.0082 H       1  LIG1        0.0625
     31 H          16.8173   30.4286   67.0851 H       1  LIG1        0.0624
     32 H          16.4885   31.5939   69.1873 H       1  LIG1        0.0618
     33 H          17.7222   30.9107   71.1621 H       1  LIG1        0.0624
     34 H          20.0507   30.1627   67.0596 H       1  LIG1        0.0428
     35 H          20.3296   30.5625   65.3817 H       1  LIG1        0.0428
     36 H          21.3373   29.3768   66.1765 H       1  LIG1        0.0428
     37 H          19.3579   27.0255   64.5141 H       1  LIG1        0.0579
     38 H          20.6837   28.1374   64.1775 H       1  LIG1        0.0579
@<TRIPOS>BOND
     1     1     2    1
     2     1     3    1
     3     1     4    1
     4     1     5    1
     5     5     6   ar
     6     5    16   ar
     7     6     7    1
     8     6     9   ar
     9     7     8    1
    10     9    10   ar
    11    10    11   ar
    12    11    12   ar
    13    11    16   ar
    14    12    13   ar
    15    12    17    1
    16    13    14   ar
    17    14    15   ar
    18    15    16   ar
    19    17    18    2
    20    17    19    1
    21    19    20    1
    22    19    21    1
    23    21    22    1
    24    22    23    2
    25    22    24    1
    26    24    25    1
    27     8    26    1
    28     8    27    1
    29     8    28    1
    30     9    29    1
    31    10    30    1
    32    13    31    1
    33    14    32    1
    34    15    33    1
    35    20    34    1
    36    20    35    1
    37    20    36    1
    38    21    37    1
    39    21    38    1
