@<TRIPOS>MOLECULE
pose6.pdb
 38 39 0 0 0
SMALL
GASTEIGER

@<TRIPOS>ATOM
      1  C1        16.7780   29.2570   65.6770 C.3     1  LIG1        0.4213
      2  F1        15.9330   28.2020   65.7940 F       1  LIG1       -0.1657
      3  F2        17.0210   29.4240   64.3500 F       1  LIG1       -0.1657
      4  F3        16.1260   30.3690   66.1110 F       1  LIG1       -0.1657
      5  C2        18.0780   29.0360   66.4820 C.ar    1  LIG1        0.1040
      6  C3        19.3670   28.9550   65.8950 C.ar    1  LIG1        0.1324
      7  O1        19.4970   29.0710   64.5850 O.3     1  LIG1       -0.4945
      8  C4        19.5950   27.8190   63.9260 C.3     1  LIG1        0.0788
      9  C5        20.4920   28.7470   66.7220 C.ar    1  LIG1       -0.0188
     10  C6        20.3490   28.6220   68.1080 C.ar    1  LIG1       -0.0499
     11  C7        19.0710   28.7000   68.6950 C.ar    1  LIG1       -0.0077
     12  C8        18.9400   28.5700   70.0970 C.ar    1  LIG1        0.0110
     13  C9        17.6650   28.6490   70.6820 C.ar    1  LIG1       -0.0517
     14  C10       16.5350   28.8520   69.8880 C.ar    1  LIG1       -0.0605
     15  C11       16.6690   28.9800   68.4990 C.ar    1  LIG1       -0.0533
     16  C12       17.9350   28.9060   67.8890 C.ar    1  LIG1       -0.0021
     17  C13       20.1070   28.3490   71.0310 C.2     1  LIG1        0.0828
     18  S1        20.7550   29.6770   71.8980 S.2     1  LIG1       -0.0348
     19  N1        20.6080   27.1220   71.1800 N.am    1  LIG1       -0.3162
     20  C14       19.9700   25.9930   70.5130 C.3     1  LIG1        0.0017
     21  C15       21.7780   26.8690   72.0150 C.3     1  LIG1        0.1095
     22  C16       23.0790   26.9100   71.1940 C.2     1  LIG1        0.3222
     23  O2        23.5090   27.9300   70.7230 O.2     1  LIG1       -0.2492
     24  O3        23.7010   25.7350   71.0470 O.3     1  LIG1       -0.4795
     25  H1        23.2170   24.9360   71.1190 H       1  LIG1        0.2951
     26 H          19.6979   27.9774   62.8728 H       1  LIG1        0.0660
     27 H          18.7116   27.2459   64.1159 H       1  LIG1        0.0660
     28 H          20.4494   27.2891   64.2921 H       1  LIG1        0.0660
     29 H          21.4314   28.6864   66.2990 H       1  LIG1        0.0654
     30 H          21.1805   28.4725   68.7008 H       1  LIG1        0.0625
     31 H          17.5633   28.5564   71.7048 H       1  LIG1        0.0624
     32 H          15.6012   28.9078   70.3238 H       1  LIG1        0.0618
     33 H          15.8301   29.1302   67.9170 H       1  LIG1        0.0624
     34 H          19.1335   26.3412   69.9439 H       1  LIG1        0.0428
     35 H          19.6347   25.2889   71.2457 H       1  LIG1        0.0428
     36 H          20.6737   25.5204   69.8600 H       1  LIG1        0.0428
     37 H          21.6814   25.9029   72.4647 H       1  LIG1        0.0579
     38 H          21.8287   27.6343   72.7611 H       1  LIG1        0.0579
@<TRIPOS>BOND
     1     1     2    1
     2     1     3    1
     3     1     4    1
     4     1     5    1
     5     5     6   ar
     6     5    16   ar
     7     6     7    1
     8     6     9   ar
     9     7     8    1
    10     9    10   ar
    11    10    11   ar
    12    11    12   ar
    13    11    16   ar
    14    12    13   ar
    15    12    17    1
    16    13    14   ar
    17    14    15   ar
    18    15    16   ar
    19    17    18    2
    20    17    19    1
    21    19    20    1
    22    19    21    1
    23    21    22    1
    24    22    23    2
    25    22    24    1
    26    24    25    1
    27     8    26    1
    28     8    27    1
    29     8    28    1
    30     9    29    1
    31    10    30    1
    32    13    31    1
    33    14    32    1
    34    15    33    1
    35    20    34    1
    36    20    35    1
    37    20    36    1
    38    21    37    1
    39    21    38    1
