@<TRIPOS>MOLECULE
pose0.pdb
 38 39 0 0 0
SMALL
GASTEIGER

@<TRIPOS>ATOM
      1  C1        17.8660   29.5000   62.3460 C.3     1  LIG1        0.4213
      2  F1        18.3930   30.7460   62.4430 F       1  LIG1       -0.1657
      3  F2        16.5270   29.6490   62.1710 F       1  LIG1       -0.1657
      4  F3        18.3580   28.9210   61.2180 F       1  LIG1       -0.1657
      5  C2        18.1980   28.6440   63.5880 C.ar    1  LIG1        0.1040
      6  C3        18.9090   27.4170   63.5360 C.ar    1  LIG1        0.1324
      7  O1        19.3260   26.9520   62.3720 O.3     1  LIG1       -0.4945
      8  C4        18.7090   25.7270   62.0130 C.3     1  LIG1        0.0788
      9  C5        19.1570   26.7100   64.7330 C.ar    1  LIG1       -0.0188
     10  C6        18.7110   27.2040   65.9630 C.ar    1  LIG1       -0.0499
     11  C7        18.0020   28.4210   66.0190 C.ar    1  LIG1       -0.0077
     12  C8        17.5560   28.9100   67.2690 C.ar    1  LIG1        0.0110
     13  C9        16.8510   30.1230   67.3240 C.ar    1  LIG1       -0.0517
     14  C10       16.5900   30.8430   66.1550 C.ar    1  LIG1       -0.0605
     15  C11       17.0340   30.3550   64.9200 C.ar    1  LIG1       -0.0533
     16  C12       17.7440   29.1420   64.8380 C.ar    1  LIG1       -0.0021
     17  C13       17.7940   28.1980   68.5800 C.2     1  LIG1        0.0828
     18  S1        16.5560   27.2160   69.2430 S.2     1  LIG1       -0.0348
     19  N1        18.9680   28.3320   69.1980 N.am    1  LIG1       -0.3162
     20  C14       20.0410   29.0870   68.5610 C.3     1  LIG1        0.0017
     21  C15       19.2220   27.7230   70.5000 C.3     1  LIG1        0.1095
     22  C16       18.8020   28.6530   71.6510 C.2     1  LIG1        0.3222
     23  O2        19.4080   29.6560   71.9210 O.2     1  LIG1       -0.2492
     24  O3        17.7110   28.2720   72.3270 O.3     1  LIG1       -0.4795
     25  H1        17.4250   27.3810   72.2890 H       1  LIG1        0.2951
     26 H          19.0855   25.4022   61.0655 H       1  LIG1        0.0660
     27 H          17.6502   25.8668   61.9472 H       1  LIG1        0.0660
     28 H          18.9257   24.9875   62.7554 H       1  LIG1        0.0660
     29 H          19.6739   25.8174   64.6997 H       1  LIG1        0.0654
     30 H          18.9010   26.6774   66.8299 H       1  LIG1        0.0625
     31 H          16.5236   30.4851   68.2332 H       1  LIG1        0.0624
     32 H          16.0705   31.7335   66.2020 H       1  LIG1        0.0618
     33 H          16.8385   30.8907   64.0598 H       1  LIG1        0.0624
     34 H          19.7002   29.4668   67.6205 H       1  LIG1        0.0428
     35 H          20.8830   28.4459   68.4028 H       1  LIG1        0.0428
     36 H          20.3270   29.9021   69.1924 H       1  LIG1        0.0428
     37 H          20.2675   27.5128   70.5871 H       1  LIG1        0.0579
     38 H          18.6450   26.8245   70.5678 H       1  LIG1        0.0579
@<TRIPOS>BOND
     1     1     2    1
     2     1     3    1
     3     1     4    1
     4     1     5    1
     5     5     6   ar
     6     5    16   ar
     7     6     7    1
     8     6     9   ar
     9     7     8    1
    10     9    10   ar
    11    10    11   ar
    12    11    12   ar
    13    11    16   ar
    14    12    13   ar
    15    12    17    1
    16    13    14   ar
    17    14    15   ar
    18    15    16   ar
    19    17    18    2
    20    17    19    1
    21    19    20    1
    22    19    21    1
    23    21    22    1
    24    22    23    2
    25    22    24    1
    26    24    25    1
    27     8    26    1
    28     8    27    1
    29     8    28    1
    30     9    29    1
    31    10    30    1
    32    13    31    1
    33    14    32    1
    34    15    33    1
    35    20    34    1
    36    20    35    1
    37    20    36    1
    38    21    37    1
    39    21    38    1
