@<TRIPOS>MOLECULE
pose5.pdb
 38 39 0 0 0
SMALL
GASTEIGER

@<TRIPOS>ATOM
      1  C1        24.3520   26.6510   72.5210 C.3     1  LIG1        0.4213
      2  F1        25.5040   27.2580   72.9030 F       1  LIG1       -0.1657
      3  F2        24.6480   25.8940   71.4310 F       1  LIG1       -0.1657
      4  F3        23.9760   25.8000   73.5120 F       1  LIG1       -0.1657
      5  C2        23.2380   27.6780   72.2280 C.ar    1  LIG1        0.1040
      6  C3        23.1510   28.9500   72.8530 C.ar    1  LIG1        0.1324
      7  O1        24.0620   29.3050   73.7400 O.3     1  LIG1       -0.4945
      8  C4        23.7290   28.9160   75.0620 C.3     1  LIG1        0.0788
      9  C5        22.0870   29.8150   72.5160 C.ar    1  LIG1       -0.0188
     10  C6        21.1220   29.4330   71.5780 C.ar    1  LIG1       -0.0499
     11  C7        21.2030   28.1700   70.9580 C.ar    1  LIG1       -0.0077
     12  C8        20.2210   27.7960   70.0110 C.ar    1  LIG1        0.0110
     13  C9        20.3020   26.5370   69.3930 C.ar    1  LIG1       -0.0517
     14  C10       21.3430   25.6600   69.7080 C.ar    1  LIG1       -0.0605
     15  C11       22.3140   26.0360   70.6450 C.ar    1  LIG1       -0.0533
     16  C12       22.2550   27.2920   71.2790 C.ar    1  LIG1       -0.0021
     17  C13       19.0630   28.6790   69.6110 C.2     1  LIG1        0.0828
     18  S1        19.1360   29.5460   68.1350 S.2     1  LIG1       -0.0348
     19  N1        17.9930   28.7630   70.4030 N.am    1  LIG1       -0.3162
     20  C14       17.9110   27.9330   71.6000 C.3     1  LIG1        0.0017
     21  C15       16.8810   29.6560   70.0960 C.3     1  LIG1        0.1095
     22  C16       15.7560   28.9220   69.3450 C.2     1  LIG1        0.3222
     23  O2        15.5250   27.7550   69.5170 O.2     1  LIG1       -0.2492
     24  O3        15.0480   29.6750   68.4950 O.3     1  LIG1       -0.4795
     25  H1        14.1470   29.4770   68.3340 H       1  LIG1        0.2951
     26 H          24.5021   29.2303   75.7317 H       1  LIG1        0.0660
     27 H          23.6298   27.8515   75.1063 H       1  LIG1        0.0660
     28 H          22.8038   29.3726   75.3458 H       1  LIG1        0.0660
     29 H          22.0204   30.7407   72.9674 H       1  LIG1        0.0654
     30 H          20.3508   30.0761   71.3400 H       1  LIG1        0.0625
     31 H          19.5880   26.2582   68.7020 H       1  LIG1        0.0624
     32 H          21.3965   24.7363   69.2509 H       1  LIG1        0.0618
     33 H          23.0815   25.3850   70.8733 H       1  LIG1        0.0624
     34 H          18.7973   27.3394   71.6838 H       1  LIG1        0.0428
     35 H          17.0573   27.2916   71.5315 H       1  LIG1        0.0428
     36 H          17.8183   28.5593   72.4626 H       1  LIG1        0.0428
     37 H          17.2388   30.4594   69.4865 H       1  LIG1        0.0579
     38 H          16.4829   30.0243   71.0184 H       1  LIG1        0.0579
@<TRIPOS>BOND
     1     1     2    1
     2     1     3    1
     3     1     4    1
     4     1     5    1
     5     5     6   ar
     6     5    16   ar
     7     6     7    1
     8     6     9   ar
     9     7     8    1
    10     9    10   ar
    11    10    11   ar
    12    11    12   ar
    13    11    16   ar
    14    12    13   ar
    15    12    17    1
    16    13    14   ar
    17    14    15   ar
    18    15    16   ar
    19    17    18    2
    20    17    19    1
    21    19    20    1
    22    19    21    1
    23    21    22    1
    24    22    23    2
    25    22    24    1
    26    24    25    1
    27     8    26    1
    28     8    27    1
    29     8    28    1
    30     9    29    1
    31    10    30    1
    32    13    31    1
    33    14    32    1
    34    15    33    1
    35    20    34    1
    36    20    35    1
    37    20    36    1
    38    21    37    1
    39    21    38    1
