@<TRIPOS>MOLECULE
pose1.pdb
 38 39 0 0 0
SMALL
GASTEIGER

@<TRIPOS>ATOM
      1  C1        16.1000   28.7670   64.6120 C.3     1  LIG1        0.4213
      2  F1        15.0720   29.2540   65.3520 F       1  LIG1       -0.1657
      3  F2        15.7840   27.4850   64.2920 F       1  LIG1       -0.1657
      4  F3        16.1530   29.4720   63.4500 F       1  LIG1       -0.1657
      5  C2        17.4420   28.8630   65.3710 C.ar    1  LIG1        0.1040
      6  C3        18.6640   29.2600   64.7680 C.ar    1  LIG1        0.1324
      7  O1        18.6890   29.5740   63.4860 O.3     1  LIG1       -0.4945
      8  C4        18.5220   28.4490   62.6380 C.3     1  LIG1        0.0788
      9  C5        19.8370   29.3110   65.5520 C.ar    1  LIG1       -0.0188
     10  C6        19.8070   28.9750   66.9100 C.ar    1  LIG1       -0.0499
     11  C7        18.5960   28.5770   67.5110 C.ar    1  LIG1       -0.0077
     12  C8        18.5790   28.2390   68.8850 C.ar    1  LIG1        0.0110
     13  C9        17.3720   27.8440   69.4830 C.ar    1  LIG1       -0.0517
     14  C10       16.1970   27.7830   68.7310 C.ar    1  LIG1       -0.0605
     15  C11       16.2180   28.1200   67.3720 C.ar    1  LIG1       -0.0533
     16  C12       17.4150   28.5190   66.7480 C.ar    1  LIG1       -0.0021
     17  C13       19.8010   28.2770   69.7720 C.2     1  LIG1        0.0828
     18  S1        20.8860   26.9500   69.7700 S.2     1  LIG1       -0.0348
     19  N1        20.0280   29.3470   70.5340 N.am    1  LIG1       -0.3162
     20  C14       19.1480   30.5060   70.4380 C.3     1  LIG1        0.0017
     21  C15       21.1550   29.4030   71.4600 C.3     1  LIG1        0.1095
     22  C16       20.9510   28.4590   72.6580 C.2     1  LIG1        0.3222
     23  O2        21.4840   27.3830   72.7250 O.2     1  LIG1       -0.2492
     24  O3        20.1480   28.9220   73.6220 O.3     1  LIG1       -0.4795
     25  H1        19.3210   29.3030   73.4000 H       1  LIG1        0.2951
     26 H          18.5510   28.7652   61.6162 H       1  LIG1        0.0660
     27 H          17.5791   27.9859   62.8414 H       1  LIG1        0.0660
     28 H          19.3099   27.7475   62.8168 H       1  LIG1        0.0660
     29 H          20.7277   29.5997   65.1181 H       1  LIG1        0.0654
     30 H          20.6718   29.0186   67.4715 H       1  LIG1        0.0625
     31 H          17.3529   27.5971   70.4848 H       1  LIG1        0.0624
     32 H          15.3136   27.4897   69.1766 H       1  LIG1        0.0618
     33 H          15.3461   28.0753   66.8217 H       1  LIG1        0.0624
     34 H          18.3770   30.3101   69.7224 H       1  LIG1        0.0428
     35 H          19.7144   31.3591   70.1276 H       1  LIG1        0.0428
     36 H          18.7070   30.6991   71.3936 H       1  LIG1        0.0428
     37 H          21.2584   30.4049   71.8210 H       1  LIG1        0.0579
     38 H          22.0348   29.0932   70.9357 H       1  LIG1        0.0579
@<TRIPOS>BOND
     1     1     2    1
     2     1     3    1
     3     1     4    1
     4     1     5    1
     5     5     6   ar
     6     5    16   ar
     7     6     7    1
     8     6     9   ar
     9     7     8    1
    10     9    10   ar
    11    10    11   ar
    12    11    12   ar
    13    11    16   ar
    14    12    13   ar
    15    12    17    1
    16    13    14   ar
    17    14    15   ar
    18    15    16   ar
    19    17    18    2
    20    17    19    1
    21    19    20    1
    22    19    21    1
    23    21    22    1
    24    22    23    2
    25    22    24    1
    26    24    25    1
    27     8    26    1
    28     8    27    1
    29     8    28    1
    30     9    29    1
    31    10    30    1
    32    13    31    1
    33    14    32    1
    34    15    33    1
    35    20    34    1
    36    20    35    1
    37    20    36    1
    38    21    37    1
    39    21    38    1
