@<TRIPOS>MOLECULE
pose4.pdb
 38 39 0 0 0
SMALL
GASTEIGER

@<TRIPOS>ATOM
      1  C1        23.1440   29.0000   73.6410 C.3     1  LIG1        0.4213
      2  F1        22.2670   29.2640   74.6420 F       1  LIG1       -0.1657
      3  F2        23.8240   30.1510   73.3970 F       1  LIG1       -0.1657
      4  F3        24.0430   28.0880   74.0980 F       1  LIG1       -0.1657
      5  C2        22.4240   28.4730   72.3800 C.ar    1  LIG1        0.1040
      6  C3        22.7850   27.2770   71.7060 C.ar    1  LIG1        0.1324
      7  O1        23.7900   26.5490   72.1590 O.3     1  LIG1       -0.4945
      8  C4        23.3690   25.3250   72.7380 C.3     1  LIG1        0.0788
      9  C5        22.0630   26.8860   70.5570 C.ar    1  LIG1       -0.0188
     10  C6        21.0010   27.6620   70.0790 C.ar    1  LIG1       -0.0499
     11  C7        20.6420   28.8510   70.7450 C.ar    1  LIG1       -0.0077
     12  C8        19.5670   29.6260   70.2510 C.ar    1  LIG1        0.0110
     13  C9        19.2080   30.8110   70.9150 C.ar    1  LIG1       -0.0517
     14  C10       19.9060   31.2230   72.0520 C.ar    1  LIG1       -0.0605
     15  C11       20.9690   30.4510   72.5380 C.ar    1  LIG1       -0.0533
     16  C12       21.3480   29.2600   71.8910 C.ar    1  LIG1       -0.0021
     17  C13       18.7580   29.2570   69.0290 C.2     1  LIG1        0.0828
     18  S1        19.5550   29.0180   67.5310 S.2     1  LIG1       -0.0348
     19  N1        17.4370   29.1060   69.1350 N.am    1  LIG1       -0.3162
     20  C14       16.7980   29.2100   70.4420 C.3     1  LIG1        0.0017
     21  C15       16.6040   28.8190   67.9720 C.3     1  LIG1        0.1095
     22  C16       16.0880   30.1100   67.3120 C.2     1  LIG1        0.3222
     23  O2        16.8140   31.0350   67.0570 O.2     1  LIG1       -0.2492
     24  O3        14.7800   30.1290   67.0350 O.3     1  LIG1       -0.4795
     25  H1        14.2850   29.3340   67.0550 H       1  LIG1        0.2951
     26 H          24.2233   24.7821   73.0849 H       1  LIG1        0.0660
     27 H          22.8504   24.7434   72.0048 H       1  LIG1        0.0660
     28 H          22.7157   25.5259   73.5612 H       1  LIG1        0.0660
     29 H          22.3217   26.0172   70.0637 H       1  LIG1        0.0654
     30 H          20.4809   27.3637   69.2391 H       1  LIG1        0.0625
     31 H          18.4237   31.3803   70.5603 H       1  LIG1        0.0624
     32 H          19.6389   32.0956   72.5339 H       1  LIG1        0.0618
     33 H          21.4800   30.7591   73.3800 H       1  LIG1        0.0624
     34 H          17.5381   29.4222   71.1850 H       1  LIG1        0.0428
     35 H          16.3123   28.2858   70.6761 H       1  LIG1        0.0428
     36 H          16.0747   29.9983   70.4237 H       1  LIG1        0.0428
     37 H          15.7669   28.2288   68.2816 H       1  LIG1        0.0579
     38 H          17.1993   28.2920   67.2559 H       1  LIG1        0.0579
@<TRIPOS>BOND
     1     1     2    1
     2     1     3    1
     3     1     4    1
     4     1     5    1
     5     5     6   ar
     6     5    16   ar
     7     6     7    1
     8     6     9   ar
     9     7     8    1
    10     9    10   ar
    11    10    11   ar
    12    11    12   ar
    13    11    16   ar
    14    12    13   ar
    15    12    17    1
    16    13    14   ar
    17    14    15   ar
    18    15    16   ar
    19    17    18    2
    20    17    19    1
    21    19    20    1
    22    19    21    1
    23    21    22    1
    24    22    23    2
    25    22    24    1
    26    24    25    1
    27     8    26    1
    28     8    27    1
    29     8    28    1
    30     9    29    1
    31    10    30    1
    32    13    31    1
    33    14    32    1
    34    15    33    1
    35    20    34    1
    36    20    35    1
    37    20    36    1
    38    21    37    1
    39    21    38    1
