@<TRIPOS>MOLECULE
pose7.pdb
 38 39 0 0 0
SMALL
GASTEIGER

@<TRIPOS>ATOM
      1  C1        22.8090   28.7810   72.0560 C.3     1  LIG1        0.4213
      2  F1        23.9770   28.0930   71.9860 F       1  LIG1       -0.1657
      3  F2        22.4860   28.8770   73.3730 F       1  LIG1       -0.1657
      4  F3        23.0360   30.0430   71.6040 F       1  LIG1       -0.1657
      5  C2        21.6960   28.0970   71.2340 C.ar    1  LIG1        0.1040
      6  C3        21.7960   26.7830   70.7070 C.ar    1  LIG1        0.1324
      7  O1        22.8930   26.0770   70.9160 O.3     1  LIG1       -0.4945
      8  C4        23.4900   25.6160   69.7150 C.3     1  LIG1        0.0788
      9  C5        20.7200   26.2510   69.9640 C.ar    1  LIG1       -0.0188
     10  C6        19.5610   27.0030   69.7430 C.ar    1  LIG1       -0.0499
     11  C7        19.4580   28.3090   70.2620 C.ar    1  LIG1       -0.0077
     12  C8        18.2820   29.0600   70.0300 C.ar    1  LIG1        0.0110
     13  C9        18.1800   30.3610   70.5490 C.ar    1  LIG1       -0.0517
     14  C10       19.2300   30.9130   71.2860 C.ar    1  LIG1       -0.0605
     15  C11       20.3930   30.1660   71.5130 C.ar    1  LIG1       -0.0533
     16  C12       20.5200   28.8590   71.0050 C.ar    1  LIG1       -0.0021
     17  C13       17.0990   28.5430   69.2460 C.2     1  LIG1        0.0828
     18  S1        15.7000   28.0120   70.0820 S.2     1  LIG1       -0.0348
     19  N1        17.1520   28.5190   67.9130 N.am    1  LIG1       -0.3162
     20  C14       18.3110   29.0760   67.2240 C.3     1  LIG1        0.0017
     21  C15       16.0650   27.9640   67.1140 C.3     1  LIG1        0.1095
     22  C16       14.9540   29.0000   66.8710 C.2     1  LIG1        0.3222
     23  O2        14.1120   28.8530   66.0250 O.2     1  LIG1       -0.2492
     24  O3        14.9850   30.0730   67.6700 O.3     1  LIG1       -0.4795
     25  H1        14.2170   30.3280   68.1410 H       1  LIG1        0.2951
     26 H          24.3700   25.0534   69.9472 H       1  LIG1        0.0660
     27 H          23.7532   26.4535   69.1032 H       1  LIG1        0.0660
     28 H          22.7972   24.9933   69.1885 H       1  LIG1        0.0660
     29 H          20.7891   25.2959   69.5792 H       1  LIG1        0.0654
     30 H          18.7812   26.6010   69.1996 H       1  LIG1        0.0625
     31 H          17.3235   30.9127   70.3847 H       1  LIG1        0.0624
     32 H          19.1492   31.8703   71.6630 H       1  LIG1        0.0618
     33 H          21.1657   30.5784   72.0589 H       1  LIG1        0.0624
     34 H          19.0136   29.4394   67.9445 H       1  LIG1        0.0428
     35 H          17.9978   29.8817   66.5934 H       1  LIG1        0.0428
     36 H          18.7716   28.3155   66.6287 H       1  LIG1        0.0428
     37 H          15.6493   27.1236   67.6295 H       1  LIG1        0.0579
     38 H          16.4631   27.6716   66.1648 H       1  LIG1        0.0579
@<TRIPOS>BOND
     1     1     2    1
     2     1     3    1
     3     1     4    1
     4     1     5    1
     5     5     6   ar
     6     5    16   ar
     7     6     7    1
     8     6     9   ar
     9     7     8    1
    10     9    10   ar
    11    10    11   ar
    12    11    12   ar
    13    11    16   ar
    14    12    13   ar
    15    12    17    1
    16    13    14   ar
    17    14    15   ar
    18    15    16   ar
    19    17    18    2
    20    17    19    1
    21    19    20    1
    22    19    21    1
    23    21    22    1
    24    22    23    2
    25    22    24    1
    26    24    25    1
    27     8    26    1
    28     8    27    1
    29     8    28    1
    30     9    29    1
    31    10    30    1
    32    13    31    1
    33    14    32    1
    34    15    33    1
    35    20    34    1
    36    20    35    1
    37    20    36    1
    38    21    37    1
    39    21    38    1
