@<TRIPOS>MOLECULE
pose9.pdb
 38 39 0 0 0
SMALL
GASTEIGER

@<TRIPOS>ATOM
      1  C1        15.7990   30.4550   65.6150 C.3     1  LIG1        0.4213
      2  F1        15.6640   30.5130   64.2660 F       1  LIG1       -0.1657
      3  F2        15.6260   31.7200   66.0840 F       1  LIG1       -0.1657
      4  F3        14.7820   29.6990   66.1080 F       1  LIG1       -0.1657
      5  C2        17.1660   29.8670   66.0240 C.ar    1  LIG1        0.1040
      6  C3        18.1630   29.4650   65.0970 C.ar    1  LIG1        0.1324
      7  O1        17.9390   29.5890   63.8010 O.3     1  LIG1       -0.4945
      8  C4        18.2730   30.8740   63.3030 C.3     1  LIG1        0.0788
      9  C5        19.3800   28.9340   65.5770 C.ar    1  LIG1       -0.0188
     10  C6        19.6130   28.8020   66.9510 C.ar    1  LIG1       -0.0499
     11  C7        18.6240   29.1980   67.8740 C.ar    1  LIG1       -0.0077
     12  C8        18.8710   29.0570   69.2600 C.ar    1  LIG1        0.0110
     13  C9        17.8860   29.4530   70.1800 C.ar    1  LIG1       -0.0517
     14  C10       16.6720   29.9790   69.7330 C.ar    1  LIG1       -0.0605
     15  C11       16.4330   30.1160   68.3590 C.ar    1  LIG1       -0.0533
     16  C12       17.4030   29.7280   67.4170 C.ar    1  LIG1       -0.0021
     17  C13       20.1540   28.5000   69.8300 C.2     1  LIG1        0.0828
     18  S1        20.2480   26.8340   70.2210 S.2     1  LIG1       -0.0348
     19  N1        21.2000   29.3070   70.0090 N.am    1  LIG1       -0.3162
     20  C14       21.1290   30.6960   69.5690 C.3     1  LIG1        0.0017
     21  C15       22.4370   28.8320   70.6220 C.3     1  LIG1        0.1095
     22  C16       22.2240   28.4360   72.0930 C.2     1  LIG1        0.3222
     23  O2        22.1660   29.2510   72.9760 O.2     1  LIG1       -0.2492
     24  O3        22.1020   27.1230   72.3220 O.3     1  LIG1       -0.4795
     25  H1        22.3080   26.7740   73.1660 H       1  LIG1        0.2951
     26 H          18.0707   30.9132   62.2530 H       1  LIG1        0.0660
     27 H          19.3122   31.0635   63.4734 H       1  LIG1        0.0660
     28 H          17.6881   31.6149   63.8068 H       1  LIG1        0.0660
     29 H          20.1070   28.6394   64.9064 H       1  LIG1        0.0654
     30 H          20.5084   28.4150   67.2880 H       1  LIG1        0.0625
     31 H          18.0606   29.3546   71.1924 H       1  LIG1        0.0624
     32 H          15.9517   30.2665   70.4138 H       1  LIG1        0.0618
     33 H          15.5345   30.5063   68.0343 H       1  LIG1        0.0624
     34 H          20.1654   30.8869   69.1447 H       1  LIG1        0.0428
     35 H          21.8847   30.8761   68.8332 H       1  LIG1        0.0428
     36 H          21.2848   31.3438   70.4063 H       1  LIG1        0.0428
     37 H          23.1694   29.6106   70.5745 H       1  LIG1        0.0579
     38 H          22.7650   27.9658   70.0862 H       1  LIG1        0.0579
@<TRIPOS>BOND
     1     1     2    1
     2     1     3    1
     3     1     4    1
     4     1     5    1
     5     5     6   ar
     6     5    16   ar
     7     6     7    1
     8     6     9   ar
     9     7     8    1
    10     9    10   ar
    11    10    11   ar
    12    11    12   ar
    13    11    16   ar
    14    12    13   ar
    15    12    17    1
    16    13    14   ar
    17    14    15   ar
    18    15    16   ar
    19    17    18    2
    20    17    19    1
    21    19    20    1
    22    19    21    1
    23    21    22    1
    24    22    23    2
    25    22    24    1
    26    24    25    1
    27     8    26    1
    28     8    27    1
    29     8    28    1
    30     9    29    1
    31    10    30    1
    32    13    31    1
    33    14    32    1
    34    15    33    1
    35    20    34    1
    36    20    35    1
    37    20    36    1
    38    21    37    1
    39    21    38    1
