@<TRIPOS>MOLECULE
pose3.pdb
 38 39 0 0 0
SMALL
GASTEIGER

@<TRIPOS>ATOM
      1  C1        24.0580   26.4530   72.7720 C.3     1  LIG1        0.4213
      2  F1        23.6180   25.3170   73.3680 F       1  LIG1       -0.1657
      3  F2        25.0470   26.9540   73.5590 F       1  LIG1       -0.1657
      4  F3        24.6220   26.1150   71.5820 F       1  LIG1       -0.1657
      5  C2        22.9120   27.4670   72.5660 C.ar    1  LIG1        0.1040
      6  C3        22.7320   28.6290   73.3600 C.ar    1  LIG1        0.1324
      7  O1        23.5770   28.8880   74.3410 O.3     1  LIG1       -0.4945
      8  C4        23.0270   28.6400   75.6250 C.3     1  LIG1        0.0788
      9  C5        21.6460   29.4910   73.0900 C.ar    1  LIG1       -0.0188
     10  C6        20.7510   29.2120   72.0510 C.ar    1  LIG1       -0.0499
     11  C7        20.9250   28.0580   71.2620 C.ar    1  LIG1       -0.0077
     12  C8        20.0130   27.7860   70.2150 C.ar    1  LIG1        0.0110
     13  C9        20.1880   26.6360   69.4280 C.ar    1  LIG1       -0.0517
     14  C10       21.2510   25.7650   69.6750 C.ar    1  LIG1       -0.0605
     15  C11       22.1520   26.0390   70.7120 C.ar    1  LIG1       -0.0533
     16  C12       22.0000   27.1840   71.5140 C.ar    1  LIG1       -0.0021
     17  C13       18.8360   28.6720   69.8790 C.2     1  LIG1        0.0828
     18  S1        17.5000   28.7420   70.9490 S.2     1  LIG1       -0.0348
     19  N1        18.8580   29.3980   68.7600 N.am    1  LIG1       -0.3162
     20  C14       20.0510   29.4020   67.9210 C.3     1  LIG1        0.0017
     21  C15       17.7180   30.2140   68.3550 C.3     1  LIG1        0.1095
     22  C16       16.5110   29.3460   67.9600 C.2     1  LIG1        0.3222
     23  O2        16.5930   28.1520   67.8330 O.2     1  LIG1       -0.2492
     24  O3        15.3640   30.0080   67.7750 O.3     1  LIG1       -0.4795
     25  H1        14.6000   29.7670   68.2610 H       1  LIG1        0.2951
     26 H          23.7555   28.8672   76.3750 H       1  LIG1        0.0660
     27 H          22.7470   27.6100   75.7002 H       1  LIG1        0.0660
     28 H          22.1637   29.2557   75.7682 H       1  LIG1        0.0660
     29 H          21.5110   30.3367   73.6659 H       1  LIG1        0.0654
     30 H          19.9634   29.8517   71.8628 H       1  LIG1        0.0625
     31 H          19.5266   26.4334   68.6621 H       1  LIG1        0.0624
     32 H          21.3727   24.9206   69.0944 H       1  LIG1        0.0618
     33 H          22.9368   25.3928   70.8895 H       1  LIG1        0.0624
     34 H          20.7910   28.7593   68.3502 H       1  LIG1        0.0428
     35 H          20.4378   30.3975   67.8557 H       1  LIG1        0.0428
     36 H          19.7994   29.0521   66.9416 H       1  LIG1        0.0428
     37 H          18.0020   30.8155   67.5169 H       1  LIG1        0.0579
     38 H          17.4326   30.8253   69.1855 H       1  LIG1        0.0579
@<TRIPOS>BOND
     1     1     2    1
     2     1     3    1
     3     1     4    1
     4     1     5    1
     5     5     6   ar
     6     5    16   ar
     7     6     7    1
     8     6     9   ar
     9     7     8    1
    10     9    10   ar
    11    10    11   ar
    12    11    12   ar
    13    11    16   ar
    14    12    13   ar
    15    12    17    1
    16    13    14   ar
    17    14    15   ar
    18    15    16   ar
    19    17    18    2
    20    17    19    1
    21    19    20    1
    22    19    21    1
    23    21    22    1
    24    22    23    2
    25    22    24    1
    26    24    25    1
    27     8    26    1
    28     8    27    1
    29     8    28    1
    30     9    29    1
    31    10    30    1
    32    13    31    1
    33    14    32    1
    34    15    33    1
    35    20    34    1
    36    20    35    1
    37    20    36    1
    38    21    37    1
    39    21    38    1
