REMARK  5 active torsions:
REMARK  status: ('A' for Active; 'I' for Inactive)
REMARK    1  A    between atoms: C1_1  and  C2_5 
REMARK    2  A    between atoms: C3_6  and  O1_7 
REMARK    3  A    between atoms: C8_12  and  C13_17 
REMARK    4  A    between atoms: N1_19  and  C15_21 
REMARK    5  A    between atoms: C15_21  and  C16_22 
ROOT
HETATM    1  C2  TOL A 320      27.378  21.010  75.341  1.00 39.49     0.092 A 
HETATM    2  C3  TOL A 320      28.511  21.621  74.743  1.00 37.18     0.084 A 
HETATM    3  C5  TOL A 320      28.525  23.020  74.554  1.00 39.03     0.038 A 
HETATM    4  C6  TOL A 320      27.436  23.807  74.947  1.00 40.20     0.016 A 
HETATM    5  C7  TOL A 320      26.310  23.205  75.543  1.00 39.45    -0.012 A 
HETATM    6  C8  TOL A 320      25.217  24.011  75.938  1.00 33.89     0.013 A 
HETATM    7  C9  TOL A 320      24.095  23.410  76.531  1.00 32.90     0.015 A 
HETATM    8  C10 TOL A 320      24.056  22.028  76.732  1.00 29.56     0.002 A 
HETATM    9  C11 TOL A 320      25.140  21.234  76.339  1.00 35.57     0.013 A 
HETATM   10  C12 TOL A 320      26.276  21.811  75.742  1.00 37.52    -0.007 A 
ENDROOT
BRANCH   6  11
HETATM   11  C13 TOL A 320      25.174  25.510  75.759  1.00 34.37     0.110 C 
HETATM   12  S1  TOL A 320      26.008  26.516  76.868  1.00 39.07    -0.060 SA
HETATM   13  N1  TOL A 320      24.501  26.031  74.732  1.00 34.17    -0.366 N 
HETATM   14  C14 TOL A 320      23.891  25.150  73.743  1.00 23.18     0.151 C 
BRANCH  13  15
HETATM   15  C15 TOL A 320      24.371  27.474  74.555  1.00 23.15     0.236 C 
BRANCH  15  16
HETATM   16  C16 TOL A 320      23.963  27.834  73.116  1.00 20.92     0.191 C 
HETATM   17  O2  TOL A 320      24.767  28.168  72.286  1.00 16.93    -0.647 OA
HETATM   18  O3  TOL A 320      22.655  27.743  72.851  1.00 20.68    -0.647 OA
ENDBRANCH  15  16
ENDBRANCH  13  15
ENDBRANCH   6  11
BRANCH   1  19
HETATM   19  C1  TOL A 320      27.255  19.493  75.600  1.00 34.72     0.420 C 
HETATM   20  F1  TOL A 320      28.315  18.813  75.094  1.00 37.53    -0.166 F 
HETATM   21  F2  TOL A 320      26.139  18.966  75.030  1.00 34.37    -0.166 F 
HETATM   22  F3  TOL A 320      27.187  19.236  76.933  1.00 47.22    -0.166 F 
ENDBRANCH   1  19
BRANCH   2  23
HETATM   23  O1  TOL A 320      29.538  20.875  74.375  1.00 37.59    -0.355 OA
HETATM   24  C4  TOL A 320      29.579  20.642  72.977  1.00 32.52     0.210 C 
ENDBRANCH   2  23
TORSDOF 5
