REMARK  5 active torsions:
REMARK  status: ('A' for Active; 'I' for Inactive)
REMARK    1  A    between atoms: C1_1  and  C2_5 
REMARK    2  A    between atoms: C3_6  and  O1_7 
REMARK    3  A    between atoms: C8_12  and  C13_17 
REMARK    4  A    between atoms: N1_19  and  C15_21 
REMARK    5  A    between atoms: C15_21  and  C16_22 
ROOT
HETATM    1  C2  TOL A 320      25.797  20.979  76.041  1.00 39.49     0.092 A 
HETATM    2  C3  TOL A 320      24.410  20.927  76.339  1.00 37.18     0.084 A 
HETATM    3  C5  TOL A 320      23.662  22.125  76.361  1.00 39.03     0.038 A 
HETATM    4  C6  TOL A 320      24.272  23.356  76.094  1.00 40.20     0.016 A 
HETATM    5  C7  TOL A 320      25.647  23.411  75.795  1.00 39.45    -0.012 A 
HETATM    6  C8  TOL A 320      26.252  24.661  75.526  1.00 33.89     0.013 A 
HETATM    7  C9  TOL A 320      27.623  24.716  75.230  1.00 32.90     0.015 A 
HETATM    8  C10 TOL A 320      28.387  23.547  75.199  1.00 29.56     0.002 A 
HETATM    9  C11 TOL A 320      27.785  22.311  75.467  1.00 35.57     0.013 A 
HETATM   10  C12 TOL A 320      26.412  22.229  75.767  1.00 37.52    -0.007 A 
ENDROOT
BRANCH   6  11
HETATM   11  C13 TOL A 320      25.503  25.973  75.538  1.00 34.37     0.110 C 
HETATM   12  S1  TOL A 320      25.550  26.958  76.940  1.00 39.07    -0.060 SA
HETATM   13  N1  TOL A 320      24.827  26.356  74.453  1.00 34.17    -0.366 N 
HETATM   14  C14 TOL A 320      24.891  25.551  73.238  1.00 23.18     0.151 C 
BRANCH  13  15
HETATM   15  C15 TOL A 320      24.031  27.579  74.439  1.00 23.15     0.236 C 
BRANCH  15  16
HETATM   16  C16 TOL A 320      23.427  27.845  73.050  1.00 20.92     0.191 C 
HETATM   17  O2  TOL A 320      22.481  27.229  72.632  1.00 16.93    -0.647 OA
HETATM   18  O3  TOL A 320      24.020  28.813  72.342  1.00 20.68    -0.647 OA
ENDBRANCH  15  16
ENDBRANCH  13  15
ENDBRANCH   6  11
BRANCH   1  19
HETATM   19  C1  TOL A 320      26.711  19.736  75.985  1.00 34.72     0.420 C 
HETATM   20  F1  TOL A 320      27.143  19.490  74.723  1.00 37.53    -0.166 F 
HETATM   21  F2  TOL A 320      26.073  18.613  76.410  1.00 34.37    -0.166 F 
HETATM   22  F3  TOL A 320      27.802  19.905  76.779  1.00 47.22    -0.166 F 
ENDBRANCH   1  19
BRANCH   2  23
HETATM   23  O1  TOL A 320      23.838  19.763  76.587  1.00 37.59    -0.355 OA
HETATM   24  C4  TOL A 320      23.297  19.154  75.427  1.00 32.52     0.210 C 
ENDBRANCH   2  23
TORSDOF 5
