REMARK  5 active torsions:
REMARK  status: ('A' for Active; 'I' for Inactive)
REMARK    1  A    between atoms: C1_1  and  C2_5 
REMARK    2  A    between atoms: C3_6  and  O1_7 
REMARK    3  A    between atoms: C8_12  and  C13_17 
REMARK    4  A    between atoms: N1_19  and  C15_21 
REMARK    5  A    between atoms: C15_21  and  C16_22 
ROOT
HETATM    1  C2  TOL A 320      19.078  28.565  68.449  1.00 39.49     0.092 A 
HETATM    2  C3  TOL A 320      20.132  28.310  67.533  1.00 37.18     0.084 A 
HETATM    3  C5  TOL A 320      21.442  28.115  68.022  1.00 39.03     0.038 A 
HETATM    4  C6  TOL A 320      21.710  28.172  69.395  1.00 40.20     0.016 A 
HETATM    5  C7  TOL A 320      20.666  28.422  70.307  1.00 39.45    -0.012 A 
HETATM    6  C8  TOL A 320      20.950  28.476  71.692  1.00 33.89     0.013 A 
HETATM    7  C9  TOL A 320      19.909  28.727  72.601  1.00 32.90     0.015 A 
HETATM    8  C10 TOL A 320      18.604  28.921  72.145  1.00 29.56     0.002 A 
HETATM    9  C11 TOL A 320      18.328  28.868  70.773  1.00 35.57     0.013 A 
HETATM   10  C12 TOL A 320      19.353  28.619  69.841  1.00 37.52    -0.007 A 
ENDROOT
BRANCH   6  11
HETATM   11  C13 TOL A 320      22.331  28.278  72.272  1.00 34.37     0.110 C 
HETATM   12  S1  TOL A 320      23.120  29.593  73.037  1.00 39.07    -0.060 SA
HETATM   13  N1  TOL A 320      22.912  27.080  72.195  1.00 34.17    -0.366 N 
HETATM   14  C14 TOL A 320      22.177  25.952  71.634  1.00 23.18     0.151 C 
BRANCH  13  15
HETATM   15  C15 TOL A 320      24.272  26.856  72.677  1.00 23.15     0.236 C 
BRANCH  15  16
HETATM   16  C16 TOL A 320      24.310  26.685  74.205  1.00 20.92     0.191 C 
HETATM   17  O2  TOL A 320      24.883  25.770  74.734  1.00 16.93    -0.647 OA
HETATM   18  O3  TOL A 320      23.668  27.628  74.904  1.00 20.68    -0.647 OA
ENDBRANCH  15  16
ENDBRANCH  13  15
ENDBRANCH   6  11
BRANCH   1  19
HETATM   19  C1  TOL A 320      17.609  28.789  68.029  1.00 34.72     0.420 C 
HETATM   20  F1  TOL A 320      17.306  30.110  67.957  1.00 37.53    -0.166 F 
HETATM   21  F2  TOL A 320      16.735  28.230  68.908  1.00 34.37    -0.166 F 
HETATM   22  F3  TOL A 320      17.366  28.235  66.811  1.00 47.22    -0.166 F 
ENDBRANCH   1  19
BRANCH   2  23
HETATM   23  O1  TOL A 320      19.874  28.254  66.239  1.00 37.59    -0.355 OA
HETATM   24  C4  TOL A 320      20.261  27.024  65.650  1.00 32.52     0.210 C 
ENDBRANCH   2  23
TORSDOF 5
