REMARK  5 active torsions:
REMARK  status: ('A' for Active; 'I' for Inactive)
REMARK    1  A    between atoms: C1_1  and  C2_5 
REMARK    2  A    between atoms: C3_6  and  O1_7 
REMARK    3  A    between atoms: C8_12  and  C13_17 
REMARK    4  A    between atoms: N1_19  and  C15_21 
REMARK    5  A    between atoms: C15_21  and  C16_22 
ROOT
HETATM    1  C2  TOL A 320      18.782  28.822  68.242  1.00 39.49     0.092 A 
HETATM    2  C3  TOL A 320      19.698  28.493  67.209  1.00 37.18     0.084 A 
HETATM    3  C5  TOL A 320      20.982  28.014  67.549  1.00 39.03     0.038 A 
HETATM    4  C6  TOL A 320      21.359  27.862  68.888  1.00 40.20     0.016 A 
HETATM    5  C7  TOL A 320      20.451  28.184  69.917  1.00 39.45    -0.012 A 
HETATM    6  C8  TOL A 320      20.844  28.024  71.266  1.00 33.89     0.013 A 
HETATM    7  C9  TOL A 320      19.939  28.347  72.291  1.00 32.90     0.015 A 
HETATM    8  C10 TOL A 320      18.662  28.821  71.983  1.00 29.56     0.002 A 
HETATM    9  C11 TOL A 320      18.278  28.979  70.645  1.00 35.57     0.013 A 
HETATM   10  C12 TOL A 320      19.166  28.663  69.600  1.00 37.52    -0.007 A 
ENDROOT
BRANCH   6  11
HETATM   11  C13 TOL A 320      22.203  27.520  71.689  1.00 34.37     0.110 C 
HETATM   12  S1  TOL A 320      22.735  25.981  71.155  1.00 39.07    -0.060 SA
HETATM   13  N1  TOL A 320      22.978  28.283  72.461  1.00 34.17    -0.366 N 
HETATM   14  C14 TOL A 320      22.547  29.631  72.814  1.00 23.18     0.151 C 
BRANCH  13  15
HETATM   15  C15 TOL A 320      24.268  27.812  72.954  1.00 23.15     0.236 C 
BRANCH  15  16
HETATM   16  C16 TOL A 320      24.168  27.295  74.400  1.00 20.92     0.191 C 
HETATM   17  O2  TOL A 320      24.532  26.193  74.714  1.00 16.93    -0.647 OA
HETATM   18  O3  TOL A 320      23.655  28.159  75.283  1.00 20.68    -0.647 OA
ENDBRANCH  15  16
ENDBRANCH  13  15
ENDBRANCH   6  11
BRANCH   1  19
HETATM   19  C1  TOL A 320      17.353  29.349  67.989  1.00 34.72     0.420 C 
HETATM   20  F1  TOL A 320      17.265  30.683  68.222  1.00 37.53    -0.166 F 
HETATM   21  F2  TOL A 320      16.436  28.746  68.791  1.00 34.37    -0.166 F 
HETATM   22  F3  TOL A 320      16.977  29.121  66.702  1.00 47.22    -0.166 F 
ENDBRANCH   1  19
BRANCH   2  23
HETATM   23  O1  TOL A 320      19.338  28.636  65.946  1.00 37.59    -0.355 OA
HETATM   24  C4  TOL A 320      19.104  27.399  65.295  1.00 32.52     0.210 C 
ENDBRANCH   2  23
TORSDOF 5
