REMARK  5 active torsions:
REMARK  status: ('A' for Active; 'I' for Inactive)
REMARK    1  A    between atoms: C1_1  and  C2_5 
REMARK    2  A    between atoms: C3_6  and  O1_7 
REMARK    3  A    between atoms: C8_12  and  C13_17 
REMARK    4  A    between atoms: N1_19  and  C15_21 
REMARK    5  A    between atoms: C15_21  and  C16_22 
ROOT
HETATM    1  C2  TOL A 320      25.735  21.034  76.033  1.00 39.49     0.092 A 
HETATM    2  C3  TOL A 320      24.366  21.008  76.409  1.00 37.18     0.084 A 
HETATM    3  C5  TOL A 320      23.627  22.211  76.414  1.00 39.03     0.038 A 
HETATM    4  C6  TOL A 320      24.228  23.423  76.054  1.00 40.20     0.016 A 
HETATM    5  C7  TOL A 320      25.586  23.452  75.679  1.00 39.45    -0.012 A 
HETATM    6  C8  TOL A 320      26.181  24.683  75.316  1.00 33.89     0.013 A 
HETATM    7  C9  TOL A 320      27.535  24.712  74.943  1.00 32.90     0.015 A 
HETATM    8  C10 TOL A 320      28.289  23.536  74.927  1.00 29.56     0.002 A 
HETATM    9  C11 TOL A 320      27.695  22.320  75.287  1.00 35.57     0.013 A 
HETATM   10  C12 TOL A 320      26.341  22.264  75.666  1.00 37.52    -0.007 A 
ENDROOT
BRANCH   6  11
HETATM   11  C13 TOL A 320      25.442  26.000  75.306  1.00 34.37     0.110 C 
HETATM   12  S1  TOL A 320      25.524  27.024  76.677  1.00 39.07    -0.060 SA
HETATM   13  N1  TOL A 320      24.747  26.357  74.225  1.00 34.17    -0.366 N 
HETATM   14  C14 TOL A 320      24.781  25.518  73.032  1.00 23.18     0.151 C 
BRANCH  13  15
HETATM   15  C15 TOL A 320      23.959  27.585  74.191  1.00 23.15     0.236 C 
BRANCH  15  16
HETATM   16  C16 TOL A 320      23.531  27.945  72.758  1.00 20.92     0.191 C 
HETATM   17  O2  TOL A 320      22.486  27.578  72.289  1.00 16.93    -0.647 OA
HETATM   18  O3  TOL A 320      24.398  28.699  72.073  1.00 20.68    -0.647 OA
ENDBRANCH  15  16
ENDBRANCH  13  15
ENDBRANCH   6  11
BRANCH   1  19
HETATM   19  C1  TOL A 320      26.638  19.782  75.987  1.00 34.72     0.420 C 
HETATM   20  F1  TOL A 320      27.729  19.924  76.781  1.00 37.53    -0.166 F 
HETATM   21  F2  TOL A 320      27.093  19.526  74.732  1.00 34.37    -0.166 F 
HETATM   22  F3  TOL A 320      25.956  18.681  76.401  1.00 47.22    -0.166 F 
ENDBRANCH   1  19
BRANCH   2  23
HETATM   23  O1  TOL A 320      23.802  19.862  76.744  1.00 37.59    -0.355 OA
HETATM   24  C4  TOL A 320      23.245  19.174  75.636  1.00 32.52     0.210 C 
ENDBRANCH   2  23
TORSDOF 5
