REMARK  5 active torsions:
REMARK  status: ('A' for Active; 'I' for Inactive)
REMARK    1  A    between atoms: C1_1  and  C2_5 
REMARK    2  A    between atoms: C3_6  and  O1_7 
REMARK    3  A    between atoms: C8_12  and  C13_17 
REMARK    4  A    between atoms: N1_19  and  C15_21 
REMARK    5  A    between atoms: C15_21  and  C16_22 
ROOT
HETATM    1  C2  TOL A 320      18.456  28.895  68.178  1.00 39.49     0.092 A 
HETATM    2  C3  TOL A 320      19.368  28.587  67.134  1.00 37.18     0.084 A 
HETATM    3  C5  TOL A 320      20.674  28.160  67.460  1.00 39.03     0.038 A 
HETATM    4  C6  TOL A 320      21.077  28.040  68.795  1.00 40.20     0.016 A 
HETATM    5  C7  TOL A 320      20.174  28.342  69.833  1.00 39.45    -0.012 A 
HETATM    6  C8  TOL A 320      20.593  28.215  71.178  1.00 33.89     0.013 A 
HETATM    7  C9  TOL A 320      19.693  28.517  72.213  1.00 32.90     0.015 A 
HETATM    8  C10 TOL A 320      18.394  28.939  71.920  1.00 29.56     0.002 A 
HETATM    9  C11 TOL A 320      17.984  29.064  70.587  1.00 35.57     0.013 A 
HETATM   10  C12 TOL A 320      18.867  28.768  69.531  1.00 37.52    -0.007 A 
ENDROOT
BRANCH   6  11
HETATM   11  C13 TOL A 320      21.977  27.767  71.586  1.00 34.37     0.110 C 
HETATM   12  S1  TOL A 320      22.603  26.296  70.968  1.00 39.07    -0.060 SA
HETATM   13  N1  TOL A 320      22.699  28.527  72.410  1.00 34.17    -0.366 N 
HETATM   14  C14 TOL A 320      22.186  29.825  72.836  1.00 23.18     0.151 C 
BRANCH  13  15
HETATM   15  C15 TOL A 320      24.012  28.105  72.889  1.00 23.15     0.236 C 
BRANCH  15  16
HETATM   16  C16 TOL A 320      23.910  27.345  74.222  1.00 20.92     0.191 C 
HETATM   17  O2  TOL A 320      24.054  26.153  74.295  1.00 16.93    -0.647 OA
HETATM   18  O3  TOL A 320      23.659  28.103  75.296  1.00 20.68    -0.647 OA
ENDBRANCH  15  16
ENDBRANCH  13  15
ENDBRANCH   6  11
BRANCH   1  19
HETATM   19  C1  TOL A 320      17.005  29.365  67.940  1.00 34.72     0.420 C 
HETATM   20  F1  TOL A 320      16.915  30.719  67.928  1.00 37.53    -0.166 F 
HETATM   21  F2  TOL A 320      16.160  28.921  68.908  1.00 34.37    -0.166 F 
HETATM   22  F3  TOL A 320      16.537  28.901  66.751  1.00 47.22    -0.166 F 
ENDBRANCH   1  19
BRANCH   2  23
HETATM   23  O1  TOL A 320      18.983  28.699  65.876  1.00 37.59    -0.355 OA
HETATM   24  C4  TOL A 320      19.094  27.484  65.153  1.00 32.52     0.210 C 
ENDBRANCH   2  23
TORSDOF 5
