REMARK  5 active torsions:
REMARK  status: ('A' for Active; 'I' for Inactive)
REMARK    1  A    between atoms: C1_1  and  C2_5 
REMARK    2  A    between atoms: C3_6  and  O1_7 
REMARK    3  A    between atoms: C8_12  and  C13_17 
REMARK    4  A    between atoms: N1_19  and  C15_21 
REMARK    5  A    between atoms: C15_21  and  C16_22 
ROOT
HETATM    1  C2  TOL A 320      18.562  28.889  68.533  1.00 39.49     0.092 A 
HETATM    2  C3  TOL A 320      19.395  28.504  67.450  1.00 37.18     0.084 A 
HETATM    3  C5  TOL A 320      20.689  28.005  67.717  1.00 39.03     0.038 A 
HETATM    4  C6  TOL A 320      21.156  27.889  69.031  1.00 40.20     0.016 A 
HETATM    5  C7  TOL A 320      20.331  28.269  70.108  1.00 39.45    -0.012 A 
HETATM    6  C8  TOL A 320      20.814  28.145  71.432  1.00 33.89     0.013 A 
HETATM    7  C9  TOL A 320      19.992  28.524  72.505  1.00 32.90     0.015 A 
HETATM    8  C10 TOL A 320      18.706  29.018  72.271  1.00 29.56     0.002 A 
HETATM    9  C11 TOL A 320      18.233  29.140  70.958  1.00 35.57     0.013 A 
HETATM   10  C12 TOL A 320      19.037  28.767  69.865  1.00 37.52    -0.007 A 
ENDROOT
BRANCH   6  11
HETATM   11  C13 TOL A 320      22.189  27.622  71.776  1.00 34.37     0.110 C 
HETATM   12  S1  TOL A 320      22.698  26.111  71.148  1.00 39.07    -0.060 SA
HETATM   13  N1  TOL A 320      22.994  28.348  72.553  1.00 34.17    -0.366 N 
HETATM   14  C14 TOL A 320      22.578  29.678  72.986  1.00 23.18     0.151 C 
BRANCH  13  15
HETATM   15  C15 TOL A 320      24.302  27.856  72.972  1.00 23.15     0.236 C 
BRANCH  15  16
HETATM   16  C16 TOL A 320      24.292  27.399  74.441  1.00 20.92     0.191 C 
HETATM   17  O2  TOL A 320      23.645  27.962  75.284  1.00 16.93    -0.647 OA
HETATM   18  O3  TOL A 320      25.046  26.328  74.714  1.00 20.68    -0.647 OA
ENDBRANCH  15  16
ENDBRANCH  13  15
ENDBRANCH   6  11
BRANCH   1  19
HETATM   19  C1  TOL A 320      17.131  29.442  68.361  1.00 34.72     0.420 C 
HETATM   20  F1  TOL A 320      16.738  29.417  67.063  1.00 37.53    -0.166 F 
HETATM   21  F2  TOL A 320      17.028  30.732  68.780  1.00 34.37    -0.166 F 
HETATM   22  F3  TOL A 320      16.242  28.711  69.084  1.00 47.22    -0.166 F 
ENDBRANCH   1  19
BRANCH   2  23
HETATM   23  O1  TOL A 320      18.950  28.612  66.212  1.00 37.59    -0.355 OA
HETATM   24  C4  TOL A 320      19.227  27.467  65.422  1.00 32.52     0.210 C 
ENDBRANCH   2  23
TORSDOF 5
