REMARK  5 active torsions:
REMARK  status: ('A' for Active; 'I' for Inactive)
REMARK    1  A    between atoms: C1_1  and  C2_5 
REMARK    2  A    between atoms: C3_6  and  O1_7 
REMARK    3  A    between atoms: C8_12  and  C13_17 
REMARK    4  A    between atoms: N1_19  and  C15_21 
REMARK    5  A    between atoms: C15_21  and  C16_22 
ROOT
HETATM    1  C2  TOL A 320      18.503  28.851  68.252  1.00 39.49     0.092 A 
HETATM    2  C3  TOL A 320      19.415  28.534  67.212  1.00 37.18     0.084 A 
HETATM    3  C5  TOL A 320      20.723  28.115  67.543  1.00 39.03     0.038 A 
HETATM    4  C6  TOL A 320      21.125  28.011  68.879  1.00 40.20     0.016 A 
HETATM    5  C7  TOL A 320      20.222  28.322  69.914  1.00 39.45    -0.012 A 
HETATM    6  C8  TOL A 320      20.641  28.212  71.261  1.00 33.89     0.013 A 
HETATM    7  C9  TOL A 320      19.740  28.524  72.292  1.00 32.90     0.015 A 
HETATM    8  C10 TOL A 320      18.440  28.938  71.994  1.00 29.56     0.002 A 
HETATM    9  C11 TOL A 320      18.030  29.047  70.659  1.00 35.57     0.013 A 
HETATM   10  C12 TOL A 320      18.913  28.741  69.607  1.00 37.52    -0.007 A 
ENDROOT
BRANCH   6  11
HETATM   11  C13 TOL A 320      22.026  27.772  71.674  1.00 34.37     0.110 C 
HETATM   12  S1  TOL A 320      22.645  26.283  71.095  1.00 39.07    -0.060 SA
HETATM   13  N1  TOL A 320      22.754  28.555  72.471  1.00 34.17    -0.366 N 
HETATM   14  C14 TOL A 320      22.247  29.865  72.862  1.00 23.18     0.151 C 
BRANCH  13  15
HETATM   15  C15 TOL A 320      24.068  28.143  72.955  1.00 23.15     0.236 C 
BRANCH  15  16
HETATM   16  C16 TOL A 320      23.962  27.313  74.245  1.00 20.92     0.191 C 
HETATM   17  O2  TOL A 320      23.644  27.800  75.298  1.00 16.93    -0.647 OA
HETATM   18  O3  TOL A 320      24.241  26.011  74.114  1.00 20.68    -0.647 OA
ENDBRANCH  15  16
ENDBRANCH  13  15
ENDBRANCH   6  11
BRANCH   1  19
HETATM   19  C1  TOL A 320      17.050  29.315  68.009  1.00 34.72     0.420 C 
HETATM   20  F1  TOL A 320      16.614  28.964  66.773  1.00 37.53    -0.166 F 
HETATM   21  F2  TOL A 320      16.922  30.665  68.106  1.00 34.37    -0.166 F 
HETATM   22  F3  TOL A 320      16.209  28.763  68.925  1.00 47.22    -0.166 F 
ENDBRANCH   1  19
BRANCH   2  23
HETATM   23  O1  TOL A 320      19.031  28.631  65.953  1.00 37.59    -0.355 OA
HETATM   24  C4  TOL A 320      19.134  27.405  65.247  1.00 32.52     0.210 C 
ENDBRANCH   2  23
TORSDOF 5
