REMARK  5 active torsions:
REMARK  status: ('A' for Active; 'I' for Inactive)
REMARK    1  A    between atoms: C1_1  and  C2_5 
REMARK    2  A    between atoms: C3_6  and  O1_7 
REMARK    3  A    between atoms: C8_12  and  C13_17 
REMARK    4  A    between atoms: N1_19  and  C15_21 
REMARK    5  A    between atoms: C15_21  and  C16_22 
ROOT
HETATM    1  C2  TOL A 320      69.641  40.111  88.723  1.00 39.49     0.092 A 
HETATM    2  C3  TOL A 320      68.905  41.122  89.394  1.00 37.18     0.084 A 
HETATM    3  C5  TOL A 320      67.545  40.899  89.702  1.00 39.03     0.038 A 
HETATM    4  C6  TOL A 320      66.919  39.697  89.353  1.00 40.20     0.016 A 
HETATM    5  C7  TOL A 320      67.647  38.690  88.689  1.00 39.45    -0.012 A 
HETATM    6  C8  TOL A 320      67.003  37.479  88.343  1.00 33.89     0.013 A 
HETATM    7  C9  TOL A 320      67.729  36.476  87.680  1.00 32.90     0.015 A 
HETATM    8  C10 TOL A 320      69.076  36.669  87.365  1.00 29.56     0.002 A 
HETATM    9  C11 TOL A 320      69.709  37.870  87.709  1.00 35.57     0.013 A 
HETATM   10  C12 TOL A 320      69.004  38.891  88.373  1.00 37.52    -0.007 A 
ENDROOT
BRANCH   6  11
HETATM   11  C13 TOL A 320      65.552  37.186  88.644  1.00 34.37     0.110 C 
HETATM   12  S1  TOL A 320      64.375  37.410  87.419  1.00 39.07    -0.060 SA
HETATM   13  N1  TOL A 320      65.207  36.743  89.854  1.00 34.17    -0.366 N 
HETATM   14  C14 TOL A 320      66.240  36.459  90.844  1.00 23.18     0.151 C 
BRANCH  13  15
HETATM   15  C15 TOL A 320      63.812  36.513  90.216  1.00 23.15     0.236 C 
BRANCH  15  16
HETATM   16  C16 TOL A 320      63.056  37.836  90.427  1.00 20.92     0.191 C 
HETATM   17  O2  TOL A 320      61.859  37.881  90.537  1.00 16.93    -0.647 OA
HETATM   18  O3  TOL A 320      63.822  38.931  90.487  1.00 20.68    -0.647 OA
ENDBRANCH  15  16
ENDBRANCH  13  15
ENDBRANCH   6  11
BRANCH   1  19
HETATM   19  C1  TOL A 320      71.131  40.243  88.340  1.00 34.72     0.420 C 
HETATM   20  F1  TOL A 320      71.876  39.247  88.882  1.00 37.53    -0.166 F 
HETATM   21  F2  TOL A 320      71.667  41.416  88.770  1.00 34.37    -0.166 F 
HETATM   22  F3  TOL A 320      71.287  40.199  86.990  1.00 47.22    -0.166 F 
ENDBRANCH   1  19
BRANCH   2  23
HETATM   23  O1  TOL A 320      69.500  42.254  89.724  1.00 37.59    -0.355 OA
HETATM   24  C4  TOL A 320      68.633  43.163  90.382  1.00 32.52     0.210 C 
ENDBRANCH   2  23
TORSDOF 5
