570.pdb
  rDOCK(R)          3D
libRbt.so/2013.1/901 2013/11/27
 43 47  0  0  0  0  0  0  0  0999 V2000
   48.0596  -47.6151   14.8540 N   0  0  0  0  0  0
   47.5913  -46.5403   13.9021 C   0  0  0  0  0  0
   48.2440  -45.1500   14.1796 C   0  0  0  0  0  0
   47.6784  -44.4177   15.4017 C   0  0  0  0  0  0
   46.3574  -43.8672   15.3173 C   0  0  0  0  0  0
   48.4397  -44.2760   16.6086 C   0  0  0  0  0  0
   45.7963  -43.1866   16.4146 C   0  0  0  0  0  0
   47.8858  -43.5944   17.7159 C   0  0  0  0  0  0
   46.5330  -43.0306   17.6318 C   0  0  0  0  0  0
   45.8487  -42.3229   18.6659 O   0  0  0  0  0  0
   48.2100  -49.0629   14.7325 C   0  0  0  0  0  0
   48.9473  -49.8341   15.7398 C   0  0  0  0  0  0
   49.0421  -51.2607   15.5368 C   0  0  0  0  0  0
   48.4536  -51.8914   14.4156 C   0  0  0  0  0  0
   47.7515  -51.1355   13.4593 C   0  0  0  0  0  0
   47.6280  -49.7527   13.6087 C   0  0  0  0  0  0
   49.2539  -48.1014   17.9451 C   0  0  0  0  0  0
   50.2783  -47.3207   18.6026 C   0  0  0  0  0  0
   49.9262  -46.2322   19.4519 C   0  0  0  0  0  0
   48.5516  -45.9111   19.6543 C   0  0  0  0  0  0
   47.5361  -46.6753   19.0117 C   0  0  0  0  0  0
   47.8833  -47.7581   18.1667 C   0  0  0  0  0  0
   49.6510  -49.2575   17.0400 C   0  0  0  0  0  0
   50.7368  -49.7776   17.3694 O   0  0  0  0  0  0
   49.0759  -38.5440   16.3128 O   0  0  0  0  0  0
   48.6926  -37.5949   17.2538 C   0  0  0  0  0  0
   47.5049  -38.1041   17.8296 N   0  0  0  0  0  0
   47.2342  -39.3061   17.2116 C   0  0  0  0  0  0
   48.2261  -39.6251   16.2174 C   0  0  0  0  0  0
   48.3231  -40.8447   15.2920 C   0  0  0  0  0  0
   49.3159  -36.3909   17.5808 C   0  0  0  0  0  0
   50.2952  -35.7676   16.7227 C   0  0  0  0  0  0
   50.9021  -34.5437   17.1070 C   0  0  0  0  0  0
   50.5493  -33.9292   18.3367 C   0  0  0  0  0  0
   49.5855  -34.5301   19.1915 C   0  0  0  0  0  0
   48.9732  -35.7529   18.8195 C   0  0  0  0  0  0
   46.1485  -40.9295   18.9223 C   0  0  0  0  0  0
   45.9739  -40.1509   17.6043 C   0  0  0  0  0  0
   46.8829  -47.6114   11.9261 O   0  0  0  0  0  0
   48.9006  -46.6662   11.8960 O   0  0  0  0  0  0
   47.7982  -46.9466   12.4698 C   0  0  0  0  0  0
   48.3165  -47.2685   15.7389 H   0  0  0  0  0  0
   49.5756  -46.2212   12.3698 H   0  0  0  0  0  0
  1  2  1  0  0  0
  1 11  1  0  0  0
  1 42  1  0  0  0
  2  3  1  0  0  0
  2 41  1  0  0  0
  3  4  1  0  0  0
  4  5  2  0  0  0
  4  6  1  0  0  0
  5  7  1  0  0  0
  6  8  2  0  0  0
  7  9  2  0  0  0
  8  9  1  0  0  0
  9 10  1  0  0  0
 10 37  1  0  0  0
 11 12  2  0  0  0
 11 16  1  0  0  0
 12 13  1  0  0  0
 12 23  1  0  0  0
 13 14  2  0  0  0
 14 15  1  0  0  0
 15 16  2  0  0  0
 17 18  2  0  0  0
 17 22  1  0  0  0
 17 23  1  0  0  0
 18 19  1  0  0  0
 19 20  2  0  0  0
 20 21  1  0  0  0
 21 22  2  0  0  0
 23 24  2  0  0  0
 25 26  1  0  0  0
 25 29  1  0  0  0
 26 27  2  0  0  0
 26 31  1  0  0  0
 27 28  1  0  0  0
 28 29  2  0  0  0
 28 38  1  0  0  0
 29 30  1  0  0  0
 31 32  2  0  0  0
 31 36  1  0  0  0
 32 33  1  0  0  0
 33 34  2  0  0  0
 34 35  1  0  0  0
 35 36  2  0  0  0
 37 38  1  0  0  0
 39 41  2  0  0  0
 40 41  1  0  0  0
 40 43  1  0  0  0
M  END
>  <CHROM.0>
69.22306533,-172.90412557,4.35987011,178.87051831

>  <CHROM.1>
-150.97067479,167.48211169,-75.47900517,86.93051733,-71.75657164,-100.90400798
54.81628500,34.09177011,-148.08806430,17.07638594,-77.59041274,-126.36936075
0.78261712,48.30021273,-43.80201261,16.44879969,1.77633011,1.40598956,-3.13932807

>  <FORMUL>
      570    C34 H30 N2 O5

>  <HET>
 570  D 200      41

>  <HETNAM>
     570 2-(2-BENZOYL-PHENYLAMINO)-3-{4-[2-(5-METHYL-2-PHENYL-OX
   2 570 AZOL-4-YL)-ETHOXY]-PHENYL}-PROPIONIC ACID

>  <HETSYN>
     570 GI262570

>  <Name>
570.pdb

>  <RI>
0

>  <Rbt.Current_Directory>
/home/malgorzata/Desktop/rDOCK_IFD/Wyniki/14a_ppar-gamma/IFD

>  <Rbt.Executable>
rbdock ($Id: //depot/dev/client3/rdock/2013.1/src/exe/rbdock.cxx#4 $)

>  <Rbt.Library>
libRbt.so (2013.1, Build901 2013/11/27)

>  <Rbt.Parameter_File>
/home/malgorzata/Desktop/rDock_2013.1_src/data/scripts/hard_docking.prm

>  <Rbt.Receptor>
cavity.prm

>  <SCORE>
22.0083

>  <SCORE.INTER>
-9.09773

>  <SCORE.INTER.CONST>
1

>  <SCORE.INTER.POLAR>
-0.562896

>  <SCORE.INTER.REPUL>
0

>  <SCORE.INTER.ROT>
12

>  <SCORE.INTER.VDW>
-24.5839

>  <SCORE.INTER.norm>
-0.221896

>  <SCORE.INTRA>
5.84145

>  <SCORE.INTRA.DIHEDRAL>
12.5293

>  <SCORE.INTRA.DIHEDRAL.0>
12.9748

>  <SCORE.INTRA.POLAR>
0.058673

>  <SCORE.INTRA.POLAR.0>
-0.058673

>  <SCORE.INTRA.REPUL>
0

>  <SCORE.INTRA.REPUL.0>
0

>  <SCORE.INTRA.VDW>
-0.622685

>  <SCORE.INTRA.VDW.0>
-4.98062

>  <SCORE.INTRA.norm>
0.142474

>  <SCORE.RESTR>
26.0325

>  <SCORE.RESTR.CAVITY>
26.0325

>  <SCORE.RESTR.norm>
0.634938

>  <SCORE.SYSTEM>
-0.767867

>  <SCORE.SYSTEM.CONST>
0

>  <SCORE.SYSTEM.DIHEDRAL>
0.684503

>  <SCORE.SYSTEM.VDW>
-1.11012

>  <SCORE.SYSTEM.norm>
-0.0187285

>  <SCORE.heavy>
41

>  <SCORE.norm>
0.536789

$$$$
570.pdb
  rDOCK(R)          3D
libRbt.so/2013.1/901 2013/11/27
 43 47  0  0  0  0  0  0  0  0999 V2000
   46.0338  -44.3639   17.6017 N   0  0  0  0  0  0
   46.3571  -43.1481   16.7662 C   0  0  0  0  0  0
   47.7755  -42.5654   17.0566 C   0  0  0  0  0  0
   47.9384  -41.0851   16.6935 C   0  0  0  0  0  0
   48.1887  -40.1466   17.7479 C   0  0  0  0  0  0
   47.8443  -40.6321   15.3362 C   0  0  0  0  0  0
   48.3456  -38.7770   17.4621 C   0  0  0  0  0  0
   48.0000  -39.2592   15.0385 C   0  0  0  0  0  0
   48.2570  -38.2967   16.1167 C   0  0  0  0  0  0
   48.4366  -36.8885   15.9647 O   0  0  0  0  0  0
   46.8439  -45.4570   18.1332 C   0  0  0  0  0  0
   46.2987  -46.8139   18.2526 C   0  0  0  0  0  0
   47.1742  -47.8303   18.7872 C   0  0  0  0  0  0
   48.5000  -47.5345   19.1824 C   0  0  0  0  0  0
   49.0052  -46.2273   19.0617 C   0  0  0  0  0  0
   48.2012  -45.2073   18.5488 C   0  0  0  0  0  0
   44.3682  -48.5449   17.1404 C   0  0  0  0  0  0
   45.1475  -49.7583   17.2464 C   0  0  0  0  0  0
   44.7226  -50.9515   16.5939 C   0  0  0  0  0  0
   43.5183  -50.9477   15.8303 C   0  0  0  0  0  0
   42.7450  -49.7568   15.7195 C   0  0  0  0  0  0
   43.1652  -48.5689   16.3672 C   0  0  0  0  0  0
   44.8377  -47.2825   17.8471 C   0  0  0  0  0  0
   43.9061  -46.4855   18.0812 O   0  0  0  0  0  0
   51.1815  -34.5567   18.3946 O   0  0  0  0  0  0
   50.2802  -34.4307   19.4458 C   0  0  0  0  0  0
   49.0023  -34.4295   18.8387 N   0  0  0  0  0  0
   49.1962  -34.5437   17.4787 C   0  0  0  0  0  0
   50.5958  -34.6232   17.1486 C   0  0  0  0  0  0
   51.2689  -34.7510   15.7761 C   0  0  0  0  0  0
   50.5433  -34.3216   20.8110 C   0  0  0  0  0  0
   49.4932  -34.2606   21.7997 C   0  0  0  0  0  0
   49.8178  -34.1450   23.1764 C   0  0  0  0  0  0
   51.1755  -34.0876   23.5855 C   0  0  0  0  0  0
   52.2206  -34.1480   22.6238 C   0  0  0  0  0  0
   51.9094  -34.2623   21.2459 C   0  0  0  0  0  0
   47.3699  -35.9722   16.3104 C   0  0  0  0  0  0
   47.9816  -34.5694   16.4886 C   0  0  0  0  0  0
   46.4892  -44.5810   14.8999 O   0  0  0  0  0  0
   45.8237  -42.4881   14.5224 O   0  0  0  0  0  0
   46.1896  -43.4294   15.2991 C   0  0  0  0  0  0
   45.0803  -44.4342   17.8367 H   0  0  0  0  0  0
   45.6529  -41.6344   14.8689 H   0  0  0  0  0  0
  1  2  1  0  0  0
  1 11  1  0  0  0
  1 42  1  0  0  0
  2  3  1  0  0  0
  2 41  1  0  0  0
  3  4  1  0  0  0
  4  5  2  0  0  0
  4  6  1  0  0  0
  5  7  1  0  0  0
  6  8  2  0  0  0
  7  9  2  0  0  0
  8  9  1  0  0  0
  9 10  1  0  0  0
 10 37  1  0  0  0
 11 12  2  0  0  0
 11 16  1  0  0  0
 12 13  1  0  0  0
 12 23  1  0  0  0
 13 14  2  0  0  0
 14 15  1  0  0  0
 15 16  2  0  0  0
 17 18  2  0  0  0
 17 22  1  0  0  0
 17 23  1  0  0  0
 18 19  1  0  0  0
 19 20  2  0  0  0
 20 21  1  0  0  0
 21 22  2  0  0  0
 23 24  2  0  0  0
 25 26  1  0  0  0
 25 29  1  0  0  0
 26 27  2  0  0  0
 26 31  1  0  0  0
 27 28  1  0  0  0
 28 29  2  0  0  0
 28 38  1  0  0  0
 29 30  1  0  0  0
 31 32  2  0  0  0
 31 36  1  0  0  0
 32 33  1  0  0  0
 33 34  2  0  0  0
 34 35  1  0  0  0
 35 36  2  0  0  0
 37 38  1  0  0  0
 39 41  2  0  0  0
 40 41  1  0  0  0
 40 43  1  0  0  0
M  END
>  <CHROM.0>
62.02606592,60.21639035,178.23636945,-141.64026280

>  <CHROM.1>
-33.16795454,-145.73518192,-156.66508005,-35.08448343,115.37704977,-76.63308876
161.68736045,138.57856276,27.14387233,-176.94505818,-84.87292561,-52.36949943
-0.69127270,47.69893825,-41.18184149,17.76070087,-2.48320891,-1.11501364
-0.68020191

>  <FORMUL>
      570    C34 H30 N2 O5

>  <HET>
 570  D 200      41

>  <HETNAM>
     570 2-(2-BENZOYL-PHENYLAMINO)-3-{4-[2-(5-METHYL-2-PHENYL-OX
   2 570 AZOL-4-YL)-ETHOXY]-PHENYL}-PROPIONIC ACID

>  <HETSYN>
     570 GI262570

>  <Name>
570.pdb

>  <RI>
0

>  <Rbt.Current_Directory>
/home/malgorzata/Desktop/rDOCK_IFD/Wyniki/14a_ppar-gamma/IFD

>  <Rbt.Executable>
rbdock ($Id: //depot/dev/client3/rdock/2013.1/src/exe/rbdock.cxx#4 $)

>  <Rbt.Library>
libRbt.so (2013.1, Build901 2013/11/27)

>  <Rbt.Parameter_File>
/home/malgorzata/Desktop/rDock_2013.1_src/data/scripts/hard_docking.prm

>  <Rbt.Receptor>
cavity.prm

>  <SCORE>
17.8599

>  <SCORE.INTER>
-4.25032

>  <SCORE.INTER.CONST>
1

>  <SCORE.INTER.POLAR>
0

>  <SCORE.INTER.REPUL>
0

>  <SCORE.INTER.ROT>
12

>  <SCORE.INTER.VDW>
-21.6503

>  <SCORE.INTER.norm>
-0.103666

>  <SCORE.INTRA>
6.92577

>  <SCORE.INTRA.DIHEDRAL>
12.4172

>  <SCORE.INTRA.DIHEDRAL.0>
12.9748

>  <SCORE.INTRA.POLAR>
0.058673

>  <SCORE.INTRA.POLAR.0>
-0.058673

>  <SCORE.INTRA.REPUL>
0

>  <SCORE.INTRA.REPUL.0>
0

>  <SCORE.INTRA.VDW>
0.517693

>  <SCORE.INTRA.VDW.0>
-4.98062

>  <SCORE.INTRA.norm>
0.168921

>  <SCORE.RESTR>
14.2781

>  <SCORE.RESTR.CAVITY>
14.2781

>  <SCORE.RESTR.norm>
0.348247

>  <SCORE.SYSTEM>
0.906312

>  <SCORE.SYSTEM.CONST>
0

>  <SCORE.SYSTEM.DIHEDRAL>
1.88406

>  <SCORE.SYSTEM.VDW>
-0.0357174

>  <SCORE.SYSTEM.norm>
0.0221052

>  <SCORE.heavy>
41

>  <SCORE.norm>
0.435607

$$$$
570.pdb
  rDOCK(R)          3D
libRbt.so/2013.1/901 2013/11/27
 43 47  0  0  0  0  0  0  0  0999 V2000
   48.3312  -44.1399   14.2044 N   0  0  0  0  0  0
   48.9246  -42.7534   14.2843 C   0  0  0  0  0  0
   49.6303  -42.4672   15.6466 C   0  0  0  0  0  0
   48.7164  -41.8623   16.7183 C   0  0  0  0  0  0
   48.6360  -40.4347   16.8211 C   0  0  0  0  0  0
   47.9537  -42.6904   17.6065 C   0  0  0  0  0  0
   47.8096  -39.8343   17.7899 C   0  0  0  0  0  0
   47.1211  -42.0976   18.5828 C   0  0  0  0  0  0
   47.0369  -40.6360   18.6892 C   0  0  0  0  0  0
   46.2407  -39.9029   19.6204 O   0  0  0  0  0  0
   48.2187  -45.1195   13.1267 C   0  0  0  0  0  0
   48.1174  -46.5544   13.4161 C   0  0  0  0  0  0
   48.0077  -47.4474   12.2866 C   0  0  0  0  0  0
   48.0006  -46.9646   10.9569 C   0  0  0  0  0  0
   48.1000  -45.5854   10.6986 C   0  0  0  0  0  0
   48.2059  -44.6781   11.7547 C   0  0  0  0  0  0
   48.3385  -46.6203   16.2280 C   0  0  0  0  0  0
   47.3513  -46.8083   17.2678 C   0  0  0  0  0  0
   47.5481  -46.2486   18.5632 C   0  0  0  0  0  0
   48.7291  -45.4970   18.8352 C   0  0  0  0  0  0
   49.7061  -45.3059   17.8168 C   0  0  0  0  0  0
   49.5131  -45.8613   16.5279 C   0  0  0  0  0  0
   48.1108  -47.2287   14.8526 C   0  0  0  0  0  0
   47.9512  -48.4659   14.8925 O   0  0  0  0  0  0
   45.6577  -35.2857   19.6797 O   0  0  0  0  0  0
   46.5275  -36.0380   18.8984 C   0  0  0  0  0  0
   46.0835  -37.3745   19.0333 N   0  0  0  0  0  0
   44.9956  -37.3598   19.8797 C   0  0  0  0  0  0
   44.6901  -36.0250   20.3258 C   0  0  0  0  0  0
   43.5814  -35.5411   21.2691 C   0  0  0  0  0  0
   47.6137  -35.6039   18.1389 C   0  0  0  0  0  0
   48.3084  -36.4692   17.2156 C   0  0  0  0  0  0
   49.4113  -35.9764   16.4708 C   0  0  0  0  0  0
   49.8358  -34.6318   16.6323 C   0  0  0  0  0  0
   49.1609  -33.7672   17.5366 C   0  0  0  0  0  0
   48.0588  -34.2479   18.2870 C   0  0  0  0  0  0
   44.7959  -39.9241   19.5253 C   0  0  0  0  0  0
   44.2487  -38.6845   20.2587 C   0  0  0  0  0  0
   49.6343  -41.4698   12.4398 O   0  0  0  0  0  0
   50.7825  -43.3282   12.8799 O   0  0  0  0  0  0
   49.8591  -42.4888   13.1371 C   0  0  0  0  0  0
   47.9395  -44.4469   15.0539 H   0  0  0  0  0  0
   51.3617  -43.1810   12.1581 H   0  0  0  0  0  0
  1  2  1  0  0  0
  1 11  1  0  0  0
  1 42  1  0  0  0
  2  3  1  0  0  0
  2 41  1  0  0  0
  3  4  1  0  0  0
  4  5  2  0  0  0
  4  6  1  0  0  0
  5  7  1  0  0  0
  6  8  2  0  0  0
  7  9  2  0  0  0
  8  9  1  0  0  0
  9 10  1  0  0  0
 10 37  1  0  0  0
 11 12  2  0  0  0
 11 16  1  0  0  0
 12 13  1  0  0  0
 12 23  1  0  0  0
 13 14  2  0  0  0
 14 15  1  0  0  0
 15 16  2  0  0  0
 17 18  2  0  0  0
 17 22  1  0  0  0
 17 23  1  0  0  0
 18 19  1  0  0  0
 19 20  2  0  0  0
 20 21  1  0  0  0
 21 22  2  0  0  0
 23 24  2  0  0  0
 25 26  1  0  0  0
 25 29  1  0  0  0
 26 27  2  0  0  0
 26 31  1  0  0  0
 27 28  1  0  0  0
 28 29  2  0  0  0
 28 38  1  0  0  0
 29 30  1  0  0  0
 31 32  2  0  0  0
 31 36  1  0  0  0
 32 33  1  0  0  0
 33 34  2  0  0  0
 34 35  1  0  0  0
 35 36  2  0  0  0
 37 38  1  0  0  0
 39 41  2  0  0  0
 40 41  1  0  0  0
 40 43  1  0  0  0
M  END
>  <CHROM.0>
68.54261466,68.19639108,-170.66845696,20.80299394

>  <CHROM.1>
-142.70813636,154.05098122,-90.20738349,125.32425998,-91.65055240,111.89294527
-158.77833041,-6.78947369,125.87573814,-170.38573702,-3.85378931,47.00898538
178.94533232,47.78781924,-41.43498745,16.55313006,-1.20192752,1.05439588
0.14996297

>  <FORMUL>
      570    C34 H30 N2 O5

>  <HET>
 570  D 200      41

>  <HETNAM>
     570 2-(2-BENZOYL-PHENYLAMINO)-3-{4-[2-(5-METHYL-2-PHENYL-OX
   2 570 AZOL-4-YL)-ETHOXY]-PHENYL}-PROPIONIC ACID

>  <HETSYN>
     570 GI262570

>  <Name>
570.pdb

>  <RI>
0

>  <Rbt.Current_Directory>
/home/malgorzata/Desktop/rDOCK_IFD/Wyniki/14a_ppar-gamma/IFD

>  <Rbt.Executable>
rbdock ($Id: //depot/dev/client3/rdock/2013.1/src/exe/rbdock.cxx#4 $)

>  <Rbt.Library>
libRbt.so (2013.1, Build901 2013/11/27)

>  <Rbt.Parameter_File>
/home/malgorzata/Desktop/rDock_2013.1_src/data/scripts/hard_docking.prm

>  <Rbt.Receptor>
cavity.prm

>  <SCORE>
0.80371

>  <SCORE.INTER>
-11.8372

>  <SCORE.INTER.CONST>
1

>  <SCORE.INTER.POLAR>
-0.540254

>  <SCORE.INTER.REPUL>
0.0766211

>  <SCORE.INTER.ROT>
12

>  <SCORE.INTER.VDW>
-27.7834

>  <SCORE.INTER.norm>
-0.288712

>  <SCORE.INTRA>
5.6783

>  <SCORE.INTRA.DIHEDRAL>
14.8682

>  <SCORE.INTRA.DIHEDRAL.0>
12.9748

>  <SCORE.INTRA.POLAR>
0.058673

>  <SCORE.INTRA.POLAR.0>
-0.058673

>  <SCORE.INTRA.REPUL>
0

>  <SCORE.INTRA.REPUL.0>
0

>  <SCORE.INTRA.VDW>
-1.95527

>  <SCORE.INTRA.VDW.0>
-4.98062

>  <SCORE.INTRA.norm>
0.138495

>  <SCORE.RESTR>
6.57183

>  <SCORE.RESTR.CAVITY>
6.57183

>  <SCORE.RESTR.norm>
0.160288

>  <SCORE.SYSTEM>
0.390789

>  <SCORE.SYSTEM.CONST>
0

>  <SCORE.SYSTEM.DIHEDRAL>
1.41425

>  <SCORE.SYSTEM.VDW>
-0.316334

>  <SCORE.SYSTEM.norm>
0.00953145

>  <SCORE.heavy>
41

>  <SCORE.norm>
0.0196027

$$$$
570.pdb
  rDOCK(R)          3D
libRbt.so/2013.1/901 2013/11/27
 43 47  0  0  0  0  0  0  0  0999 V2000
   49.3965  -43.7659   16.1204 N   0  0  0  0  0  0
   48.3571  -43.2933   17.1089 C   0  0  0  0  0  0
   47.0017  -42.9111   16.4361 C   0  0  0  0  0  0
   46.9108  -41.4505   15.9801 C   0  0  0  0  0  0
   46.2407  -40.5100   16.8296 C   0  0  0  0  0  0
   47.4761  -41.0179   14.7352 C   0  0  0  0  0  0
   46.1330  -39.1580   16.4524 C   0  0  0  0  0  0
   47.3733  -39.6627   14.3471 C   0  0  0  0  0  0
   46.6881  -38.6981   15.2159 C   0  0  0  0  0  0
   46.5114  -37.3056   14.9549 O   0  0  0  0  0  0
   49.8562  -43.2559   14.8312 C   0  0  0  0  0  0
   49.5709  -43.9785   13.5864 C   0  0  0  0  0  0
   50.0638  -43.3968   12.3600 C   0  0  0  0  0  0
   50.7927  -42.1844   12.3543 C   0  0  0  0  0  0
   51.0577  -41.5060   13.5578 C   0  0  0  0  0  0
   50.6020  -42.0240   14.7719 C   0  0  0  0  0  0
   48.3190  -46.0991   12.2097 C   0  0  0  0  0  0
   49.2045  -46.1993   11.0708 C   0  0  0  0  0  0
   48.8039  -46.9087    9.9020 C   0  0  0  0  0  0
   47.5187  -47.5250    9.8562 C   0  0  0  0  0  0
   46.6397  -47.4305   10.9727 C   0  0  0  0  0  0
   47.0353  -46.7256   12.1363 C   0  0  0  0  0  0
   48.7669  -45.3397   13.4491 C   0  0  0  0  0  0
   48.3751  -45.8709   14.5085 O   0  0  0  0  0  0
   48.3016  -34.9683   19.6023 O   0  0  0  0  0  0
   49.4102  -34.4143   18.9720 C   0  0  0  0  0  0
   49.1136  -34.4664   17.5896 N   0  0  0  0  0  0
   47.8697  -35.0459   17.4604 C   0  0  0  0  0  0
   47.3111  -35.3913   18.7422 C   0  0  0  0  0  0
   45.9679  -36.0535   19.0748 C   0  0  0  0  0  0
   50.5782  -33.9121   19.5453 C   0  0  0  0  0  0
   50.6131  -33.3685   20.8821 C   0  0  0  0  0  0
   51.8288  -32.8662   21.4147 C   0  0  0  0  0  0
   53.0139  -32.8954   20.6343 C   0  0  0  0  0  0
   52.9956  -33.4290   19.3169 C   0  0  0  0  0  0
   51.7875  -33.9326   18.7733 C   0  0  0  0  0  0
   46.1747  -36.3955   16.0298 C   0  0  0  0  0  0
   47.2240  -35.2675   16.0496 C   0  0  0  0  0  0
   48.9834  -45.2259   18.3032 O   0  0  0  0  0  0
   47.0949  -44.2203   18.9260 O   0  0  0  0  0  0
   48.1405  -44.3014   18.2025 C   0  0  0  0  0  0
   49.8599  -44.5872   16.4034 H   0  0  0  0  0  0
   46.9405  -44.8537   19.5992 H   0  0  0  0  0  0
  1  2  1  0  0  0
  1 11  1  0  0  0
  1 42  1  0  0  0
  2  3  1  0  0  0
  2 41  1  0  0  0
  3  4  1  0  0  0
  4  5  2  0  0  0
  4  6  1  0  0  0
  5  7  1  0  0  0
  6  8  2  0  0  0
  7  9  2  0  0  0
  8  9  1  0  0  0
  9 10  1  0  0  0
 10 37  1  0  0  0
 11 12  2  0  0  0
 11 16  1  0  0  0
 12 13  1  0  0  0
 12 23  1  0  0  0
 13 14  2  0  0  0
 14 15  1  0  0  0
 15 16  2  0  0  0
 17 18  2  0  0  0
 17 22  1  0  0  0
 17 23  1  0  0  0
 18 19  1  0  0  0
 19 20  2  0  0  0
 20 21  1  0  0  0
 21 22  2  0  0  0
 23 24  2  0  0  0
 25 26  1  0  0  0
 25 29  1  0  0  0
 26 27  2  0  0  0
 26 31  1  0  0  0
 27 28  1  0  0  0
 28 29  2  0  0  0
 28 38  1  0  0  0
 29 30  1  0  0  0
 31 32  2  0  0  0
 31 36  1  0  0  0
 32 33  1  0  0  0
 33 34  2  0  0  0
 34 35  1  0  0  0
 35 36  2  0  0  0
 37 38  1  0  0  0
 39 41  2  0  0  0
 40 41  1  0  0  0
 40 43  1  0  0  0
M  END
>  <CHROM.0>
178.12578003,77.27365417,-18.81889084,30.78011950

>  <CHROM.1>
46.49652963,-110.86954214,-88.79116133,13.18608492,-98.20641336,17.86974877
124.97982385,174.09875695,40.33732882,-27.24498081,156.13650735,-128.05934551
178.73520422,48.62340377,-40.32222878,15.98794625,-1.68402507,-0.26738260
0.47312851

>  <FORMUL>
      570    C34 H30 N2 O5

>  <HET>
 570  D 200      41

>  <HETNAM>
     570 2-(2-BENZOYL-PHENYLAMINO)-3-{4-[2-(5-METHYL-2-PHENYL-OX
   2 570 AZOL-4-YL)-ETHOXY]-PHENYL}-PROPIONIC ACID

>  <HETSYN>
     570 GI262570

>  <Name>
570.pdb

>  <RI>
0

>  <Rbt.Current_Directory>
/home/malgorzata/Desktop/rDOCK_IFD/Wyniki/14a_ppar-gamma/IFD

>  <Rbt.Executable>
rbdock ($Id: //depot/dev/client3/rdock/2013.1/src/exe/rbdock.cxx#4 $)

>  <Rbt.Library>
libRbt.so (2013.1, Build901 2013/11/27)

>  <Rbt.Parameter_File>
/home/malgorzata/Desktop/rDock_2013.1_src/data/scripts/hard_docking.prm

>  <Rbt.Receptor>
cavity.prm

>  <SCORE>
14.9891

>  <SCORE.INTER>
-14.3896

>  <SCORE.INTER.CONST>
1

>  <SCORE.INTER.POLAR>
-0.495209

>  <SCORE.INTER.REPUL>
0

>  <SCORE.INTER.ROT>
12

>  <SCORE.INTER.VDW>
-30.1059

>  <SCORE.INTER.norm>
-0.350966

>  <SCORE.INTRA>
15.8509

>  <SCORE.INTRA.DIHEDRAL>
26.4382

>  <SCORE.INTRA.DIHEDRAL.0>
12.9748

>  <SCORE.INTRA.POLAR>
0.058673

>  <SCORE.INTRA.POLAR.0>
-0.058673

>  <SCORE.INTRA.REPUL>
0

>  <SCORE.INTRA.REPUL.0>
0

>  <SCORE.INTRA.VDW>
2.4323

>  <SCORE.INTRA.VDW.0>
-4.98062

>  <SCORE.INTRA.norm>
0.386606

>  <SCORE.RESTR>
12.5283

>  <SCORE.RESTR.CAVITY>
12.5283

>  <SCORE.RESTR.norm>
0.305568

>  <SCORE.SYSTEM>
0.999602

>  <SCORE.SYSTEM.CONST>
0

>  <SCORE.SYSTEM.DIHEDRAL>
3.16586

>  <SCORE.SYSTEM.VDW>
-0.583327

>  <SCORE.SYSTEM.norm>
0.0243805

>  <SCORE.heavy>
41

>  <SCORE.norm>
0.365589

$$$$
570.pdb
  rDOCK(R)          3D
libRbt.so/2013.1/901 2013/11/27
 43 47  0  0  0  0  0  0  0  0999 V2000
   47.6160  -45.2428   17.5602 N   0  0  0  0  0  0
   48.8258  -45.7986   16.8473 C   0  0  0  0  0  0
   49.0119  -45.2152   15.4117 C   0  0  0  0  0  0
   48.7950  -43.7012   15.3105 C   0  0  0  0  0  0
   47.4701  -43.1868   15.4976 C   0  0  0  0  0  0
   49.8806  -42.8058   15.0343 C   0  0  0  0  0  0
   47.2231  -41.8033   15.4142 C   0  0  0  0  0  0
   49.6434  -41.4152   14.9483 C   0  0  0  0  0  0
   48.2875  -40.8865   15.1403 C   0  0  0  0  0  0
   47.9024  -39.5128   15.0843 O   0  0  0  0  0  0
   47.3520  -43.9821   18.2491 C   0  0  0  0  0  0
   45.9993  -43.4159   18.2988 C   0  0  0  0  0  0
   45.8342  -42.1667   19.0041 C   0  0  0  0  0  0
   46.9269  -41.5122   19.6196 C   0  0  0  0  0  0
   48.2172  -42.0694   19.5606 C   0  0  0  0  0  0
   48.4316  -43.2770   18.8929 C   0  0  0  0  0  0
   44.2982  -45.4962   17.4393 C   0  0  0  0  0  0
   44.7350  -46.5054   18.3783 C   0  0  0  0  0  0
   44.3756  -47.8715   18.1929 C   0  0  0  0  0  0
   43.5781  -48.2454   17.0714 C   0  0  0  0  0  0
   43.1443  -47.2584   16.1408 C   0  0  0  0  0  0
   43.5003  -45.8992   16.3227 C   0  0  0  0  0  0
   44.6903  -44.0428   17.6570 C   0  0  0  0  0  0
   43.8511  -43.2421   17.1958 O   0  0  0  0  0  0
   46.4815  -35.3720   17.6080 O   0  0  0  0  0  0
   45.5471  -36.3104   18.0314 C   0  0  0  0  0  0
   45.4522  -37.2420   16.9708 N   0  0  0  0  0  0
   46.3110  -36.8200   15.9787 C   0  0  0  0  0  0
   46.9937  -35.6075   16.3502 C   0  0  0  0  0  0
   48.0233  -34.7869   15.5629 C   0  0  0  0  0  0
   44.8359  -36.3525   19.2304 C   0  0  0  0  0  0
   44.5114  -35.1625   19.9805 C   0  0  0  0  0  0
   43.7890  -35.2636   21.1979 C   0  0  0  0  0  0
   43.3846  -36.5347   21.6825 C   0  0  0  0  0  0
   43.6954  -37.7153   20.9543 C   0  0  0  0  0  0
   44.4174  -37.6277   19.7378 C   0  0  0  0  0  0
   46.5210  -39.1480   14.8485 C   0  0  0  0  0  0
   46.4565  -37.6227   14.6405 C   0  0  0  0  0  0
   51.1313  -45.3483   17.0354 O   0  0  0  0  0  0
   50.0318  -45.7971   18.9210 O   0  0  0  0  0  0
   50.0761  -45.6136   17.6610 C   0  0  0  0  0  0
   46.8465  -45.8570   17.5608 H   0  0  0  0  0  0
   50.7983  -45.6585   19.4419 H   0  0  0  0  0  0
  1  2  1  0  0  0
  1 11  1  0  0  0
  1 42  1  0  0  0
  2  3  1  0  0  0
  2 41  1  0  0  0
  3  4  1  0  0  0
  4  5  2  0  0  0
  4  6  1  0  0  0
  5  7  1  0  0  0
  6  8  2  0  0  0
  7  9  2  0  0  0
  8  9  1  0  0  0
  9 10  1  0  0  0
 10 37  1  0  0  0
 11 12  2  0  0  0
 11 16  1  0  0  0
 12 13  1  0  0  0
 12 23  1  0  0  0
 13 14  2  0  0  0
 14 15  1  0  0  0
 15 16  2  0  0  0
 17 18  2  0  0  0
 17 22  1  0  0  0
 17 23  1  0  0  0
 18 19  1  0  0  0
 19 20  2  0  0  0
 20 21  1  0  0  0
 21 22  2  0  0  0
 23 24  2  0  0  0
 25 26  1  0  0  0
 25 29  1  0  0  0
 26 27  2  0  0  0
 26 31  1  0  0  0
 27 28  1  0  0  0
 28 29  2  0  0  0
 28 38  1  0  0  0
 29 30  1  0  0  0
 31 32  2  0  0  0
 31 36  1  0  0  0
 32 33  1  0  0  0
 33 34  2  0  0  0
 34 35  1  0  0  0
 35 36  2  0  0  0
 37 38  1  0  0  0
 39 41  2  0  0  0
 40 41  1  0  0  0
 40 43  1  0  0  0
M  END
>  <CHROM.0>
-70.02838671,87.10247944,37.11294277,-174.57138491

>  <CHROM.1>
-78.29892560,150.50587430,43.50445992,-143.32383220,-68.53243574,-20.68219929
-171.93187844,31.72289293,32.53701614,27.89937534,-42.71338603,-87.06999180
-178.07831023,46.57124485,-41.53571623,17.41092077,-1.39903598,0.58550543
0.01381595

>  <FORMUL>
      570    C34 H30 N2 O5

>  <HET>
 570  D 200      41

>  <HETNAM>
     570 2-(2-BENZOYL-PHENYLAMINO)-3-{4-[2-(5-METHYL-2-PHENYL-OX
   2 570 AZOL-4-YL)-ETHOXY]-PHENYL}-PROPIONIC ACID

>  <HETSYN>
     570 GI262570

>  <Name>
570.pdb

>  <RI>
0

>  <Rbt.Current_Directory>
/home/malgorzata/Desktop/rDOCK_IFD/Wyniki/14a_ppar-gamma/IFD

>  <Rbt.Executable>
rbdock ($Id: //depot/dev/client3/rdock/2013.1/src/exe/rbdock.cxx#4 $)

>  <Rbt.Library>
libRbt.so (2013.1, Build901 2013/11/27)

>  <Rbt.Parameter_File>
/home/malgorzata/Desktop/rDock_2013.1_src/data/scripts/hard_docking.prm

>  <Rbt.Receptor>
cavity.prm

>  <SCORE>
15.363

>  <SCORE.INTER>
5.09412

>  <SCORE.INTER.CONST>
1

>  <SCORE.INTER.POLAR>
-0.101869

>  <SCORE.INTER.REPUL>
0

>  <SCORE.INTER.ROT>
12

>  <SCORE.INTER.VDW>
-11.9595

>  <SCORE.INTER.norm>
0.124247

>  <SCORE.INTRA>
6.11412

>  <SCORE.INTRA.DIHEDRAL>
9.26787

>  <SCORE.INTRA.DIHEDRAL.0>
12.9748

>  <SCORE.INTRA.POLAR>
0.058673

>  <SCORE.INTRA.POLAR.0>
-0.058673

>  <SCORE.INTRA.REPUL>
0

>  <SCORE.INTRA.REPUL.0>
0

>  <SCORE.INTRA.VDW>
1.2807

>  <SCORE.INTRA.VDW.0>
-4.98062

>  <SCORE.INTRA.norm>
0.149125

>  <SCORE.RESTR>
2.21513

>  <SCORE.RESTR.CAVITY>
2.21513

>  <SCORE.RESTR.norm>
0.0540276

>  <SCORE.SYSTEM>
1.93962

>  <SCORE.SYSTEM.CONST>
0

>  <SCORE.SYSTEM.DIHEDRAL>
5.31963

>  <SCORE.SYSTEM.VDW>
-0.720194

>  <SCORE.SYSTEM.norm>
0.0473079

>  <SCORE.heavy>
41

>  <SCORE.norm>
0.374707

$$$$
570.pdb
  rDOCK(R)          3D
libRbt.so/2013.1/901 2013/11/27
 43 47  0  0  0  0  0  0  0  0999 V2000
   47.2107  -44.5539   16.3262 N   0  0  0  0  0  0
   47.2941  -44.0277   14.9130 C   0  0  0  0  0  0
   48.2257  -42.7829   14.7773 C   0  0  0  0  0  0
   47.8429  -41.6042   15.6793 C   0  0  0  0  0  0
   46.4521  -41.3423   15.9078 C   0  0  0  0  0  0
   48.8397  -40.7718   16.2875 C   0  0  0  0  0  0
   46.0530  -40.2709   16.7293 C   0  0  0  0  0  0
   48.4497  -39.6935   17.1138 C   0  0  0  0  0  0
   47.0261  -39.4241   17.3495 C   0  0  0  0  0  0
   46.4887  -38.3772   18.1580 O   0  0  0  0  0  0
   46.3140  -45.4951   16.9921 C   0  0  0  0  0  0
   46.7659  -46.2859   18.1425 C   0  0  0  0  0  0
   45.8088  -47.1889   18.7372 C   0  0  0  0  0  0
   44.4922  -47.3112   18.2342 C   0  0  0  0  0  0
   44.0770  -46.5457   17.1295 C   0  0  0  0  0  0
   44.9623  -45.6555   16.5183 C   0  0  0  0  0  0
   49.5791  -46.0745   18.1746 C   0  0  0  0  0  0
   49.6859  -45.7336   16.7734 C   0  0  0  0  0  0
   50.9627  -45.5661   16.1638 C   0  0  0  0  0  0
   52.1446  -45.7362   16.9433 C   0  0  0  0  0  0
   52.0490  -46.0730   18.3238 C   0  0  0  0  0  0
   50.7807  -46.2403   18.9325 C   0  0  0  0  0  0
   48.2065  -46.2459   18.8070 C   0  0  0  0  0  0
   48.2632  -46.4386   20.0389 O   0  0  0  0  0  0
   49.2381  -33.8453   18.4118 O   0  0  0  0  0  0
   49.1385  -34.7414   19.4701 C   0  0  0  0  0  0
   48.3822  -35.8258   18.9662 N   0  0  0  0  0  0
   48.0638  -35.5286   17.6584 C   0  0  0  0  0  0
   48.5953  -34.2503   17.2617 C   0  0  0  0  0  0
   48.4841  -33.5223   15.9160 C   0  0  0  0  0  0
   49.6544  -34.6266   20.7607 C   0  0  0  0  0  0
   49.5415  -35.6842   21.7368 C   0  0  0  0  0  0
   50.0809  -35.5122   23.0381 C   0  0  0  0  0  0
   50.7317  -34.2995   23.3847 C   0  0  0  0  0  0
   50.8519  -33.2496   22.4339 C   0  0  0  0  0  0
   50.3163  -33.4088   21.1314 C   0  0  0  0  0  0
   46.0335  -37.1434   17.5518 C   0  0  0  0  0  0
   47.2169  -36.5192   16.7878 C   0  0  0  0  0  0
   47.8909  -46.2535   14.4201 O   0  0  0  0  0  0
   47.9118  -44.8031   12.7286 O   0  0  0  0  0  0
   47.7051  -45.1052   13.9489 C   0  0  0  0  0  0
   47.9038  -44.1868   16.9213 H   0  0  0  0  0  0
   47.8331  -43.9130   12.4464 H   0  0  0  0  0  0
  1  2  1  0  0  0
  1 11  1  0  0  0
  1 42  1  0  0  0
  2  3  1  0  0  0
  2 41  1  0  0  0
  3  4  1  0  0  0
  4  5  2  0  0  0
  4  6  1  0  0  0
  5  7  1  0  0  0
  6  8  2  0  0  0
  7  9  2  0  0  0
  8  9  1  0  0  0
  9 10  1  0  0  0
 10 37  1  0  0  0
 11 12  2  0  0  0
 11 16  1  0  0  0
 12 13  1  0  0  0
 12 23  1  0  0  0
 13 14  2  0  0  0
 14 15  1  0  0  0
 15 16  2  0  0  0
 17 18  2  0  0  0
 17 22  1  0  0  0
 17 23  1  0  0  0
 18 19  1  0  0  0
 19 20  2  0  0  0
 20 21  1  0  0  0
 21 22  2  0  0  0
 23 24  2  0  0  0
 25 26  1  0  0  0
 25 29  1  0  0  0
 26 27  2  0  0  0
 26 31  1  0  0  0
 27 28  1  0  0  0
 28 29  2  0  0  0
 28 38  1  0  0  0
 29 30  1  0  0  0
 31 32  2  0  0  0
 31 36  1  0  0  0
 32 33  1  0  0  0
 33 34  2  0  0  0
 34 35  1  0  0  0
 35 36  2  0  0  0
 37 38  1  0  0  0
 39 41  2  0  0  0
 40 41  1  0  0  0
 40 43  1  0  0  0
M  END
>  <CHROM.0>
67.16751372,74.01435840,-21.25052635,-175.95105409

>  <CHROM.1>
166.40739745,152.00591052,-56.81545972,1.29408637,-36.44190050,-82.26237041
-58.32769179,-36.27025833,8.40478756,-175.98841539,42.04831253,-90.85145238
1.89687376,48.22681896,-41.06304874,17.72260606,1.79237504,0.99290451,-3.06285667

>  <FORMUL>
      570    C34 H30 N2 O5

>  <HET>
 570  D 200      41

>  <HETNAM>
     570 2-(2-BENZOYL-PHENYLAMINO)-3-{4-[2-(5-METHYL-2-PHENYL-OX
   2 570 AZOL-4-YL)-ETHOXY]-PHENYL}-PROPIONIC ACID

>  <HETSYN>
     570 GI262570

>  <Name>
570.pdb

>  <RI>
0

>  <Rbt.Current_Directory>
/home/malgorzata/Desktop/rDOCK_IFD/Wyniki/14a_ppar-gamma/IFD

>  <Rbt.Executable>
rbdock ($Id: //depot/dev/client3/rdock/2013.1/src/exe/rbdock.cxx#4 $)

>  <Rbt.Library>
libRbt.so (2013.1, Build901 2013/11/27)

>  <Rbt.Parameter_File>
/home/malgorzata/Desktop/rDock_2013.1_src/data/scripts/hard_docking.prm

>  <Rbt.Receptor>
cavity.prm

>  <SCORE>
-9.7899

>  <SCORE.INTER>
-16.3215

>  <SCORE.INTER.CONST>
1

>  <SCORE.INTER.POLAR>
-0.611615

>  <SCORE.INTER.REPUL>
0

>  <SCORE.INTER.ROT>
12

>  <SCORE.INTER.VDW>
-31.642

>  <SCORE.INTER.norm>
-0.398085

>  <SCORE.INTRA>
5.01185

>  <SCORE.INTRA.DIHEDRAL>
6.58359

>  <SCORE.INTRA.DIHEDRAL.0>
12.9748

>  <SCORE.INTRA.POLAR>
0.058673

>  <SCORE.INTRA.POLAR.0>
-0.058673

>  <SCORE.INTRA.REPUL>
0

>  <SCORE.INTRA.REPUL.0>
0

>  <SCORE.INTRA.VDW>
1.52057

>  <SCORE.INTRA.VDW.0>
-4.98062

>  <SCORE.INTRA.norm>
0.12224

>  <SCORE.RESTR>
1.04149

>  <SCORE.RESTR.CAVITY>
1.04149

>  <SCORE.RESTR.norm>
0.0254021

>  <SCORE.SYSTEM>
0.47826

>  <SCORE.SYSTEM.CONST>
0

>  <SCORE.SYSTEM.DIHEDRAL>
1.84261

>  <SCORE.SYSTEM.VDW>
-0.443046

>  <SCORE.SYSTEM.norm>
0.0116649

>  <SCORE.heavy>
41

>  <SCORE.norm>
-0.238778

$$$$
570.pdb
  rDOCK(R)          3D
libRbt.so/2013.1/901 2013/11/27
 43 47  0  0  0  0  0  0  0  0999 V2000
   45.8191  -48.1425   16.9140 N   0  0  0  0  0  0
   46.9992  -49.0757   16.7824 C   0  0  0  0  0  0
   48.2874  -48.5355   17.4786 C   0  0  0  0  0  0
   48.6954  -47.1225   17.0466 C   0  0  0  0  0  0
   48.8697  -46.8593   15.6482 C   0  0  0  0  0  0
   48.9035  -46.0769   18.0055 C   0  0  0  0  0  0
   49.2435  -45.5766   15.2045 C   0  0  0  0  0  0
   49.2792  -44.7856   17.5706 C   0  0  0  0  0  0
   49.4575  -44.5139   16.1391 C   0  0  0  0  0  0
   49.8306  -43.2642   15.5582 O   0  0  0  0  0  0
   45.6805  -46.7636   17.3754 C   0  0  0  0  0  0
   45.0530  -45.7421   16.5294 C   0  0  0  0  0  0
   44.9583  -44.4067   17.0706 C   0  0  0  0  0  0
   45.4501  -44.0916   18.3590 C   0  0  0  0  0  0
   46.0499  -45.0838   19.1556 C   0  0  0  0  0  0
   46.1648  -46.3921   18.6811 C   0  0  0  0  0  0
   45.0310  -45.5918   13.7122 C   0  0  0  0  0  0
   46.4495  -45.7321   13.4683 C   0  0  0  0  0  0
   47.0030  -45.3971   12.1989 C   0  0  0  0  0  0
   46.1497  -44.9196   11.1609 C   0  0  0  0  0  0
   44.7517  -44.7772   11.3925 C   0  0  0  0  0  0
   44.1987  -45.1096   12.6537 C   0  0  0  0  0  0
   44.4597  -45.9578   15.0734 C   0  0  0  0  0  0
   43.3171  -46.4547   14.9996 O   0  0  0  0  0  0
   46.2051  -40.7070   15.3159 O   0  0  0  0  0  0
   46.7164  -39.4259   15.1414 C   0  0  0  0  0  0
   48.0029  -39.6142   14.5837 N   0  0  0  0  0  0
   48.2001  -40.9730   14.4617 C   0  0  0  0  0  0
   47.0600  -41.7174   14.9307 C   0  0  0  0  0  0
   46.8420  -43.2348   14.9888 C   0  0  0  0  0  0
   46.1211  -38.2014   15.4436 C   0  0  0  0  0  0
   45.4317  -37.9619   16.6891 C   0  0  0  0  0  0
   44.8395  -36.6974   16.9429 C   0  0  0  0  0  0
   44.9220  -35.6648   15.9728 C   0  0  0  0  0  0
   45.5988  -35.8851   14.7423 C   0  0  0  0  0  0
   46.1932  -37.1440   14.4764 C   0  0  0  0  0  0
   49.7140  -43.0561   14.1299 C   0  0  0  0  0  0
   49.5369  -41.5464   13.8781 C   0  0  0  0  0  0
   45.7996  -50.5443   18.1816 O   0  0  0  0  0  0
   47.3139  -51.4535   16.8231 O   0  0  0  0  0  0
   46.6669  -50.4550   17.2789 C   0  0  0  0  0  0
   44.9675  -48.5470   16.6304 H   0  0  0  0  0  0
   47.9579  -51.3286   16.1539 H   0  0  0  0  0  0
  1  2  1  0  0  0
  1 11  1  0  0  0
  1 42  1  0  0  0
  2  3  1  0  0  0
  2 41  1  0  0  0
  3  4  1  0  0  0
  4  5  2  0  0  0
  4  6  1  0  0  0
  5  7  1  0  0  0
  6  8  2  0  0  0
  7  9  2  0  0  0
  8  9  1  0  0  0
  9 10  1  0  0  0
 10 37  1  0  0  0
 11 12  2  0  0  0
 11 16  1  0  0  0
 12 13  1  0  0  0
 12 23  1  0  0  0
 13 14  2  0  0  0
 14 15  1  0  0  0
 15 16  2  0  0  0
 17 18  2  0  0  0
 17 22  1  0  0  0
 17 23  1  0  0  0
 18 19  1  0  0  0
 19 20  2  0  0  0
 20 21  1  0  0  0
 21 22  2  0  0  0
 23 24  2  0  0  0
 25 26  1  0  0  0
 25 29  1  0  0  0
 26 27  2  0  0  0
 26 31  1  0  0  0
 27 28  1  0  0  0
 28 29  2  0  0  0
 28 38  1  0  0  0
 29 30  1  0  0  0
 31 32  2  0  0  0
 31 36  1  0  0  0
 32 33  1  0  0  0
 33 34  2  0  0  0
 34 35  1  0  0  0
 35 36  2  0  0  0
 37 38  1  0  0  0
 39 41  2  0  0  0
 40 41  1  0  0  0
 40 43  1  0  0  0
M  END
>  <CHROM.0>
-176.21666003,-62.42055718,-177.78991151,176.19669234

>  <CHROM.1>
10.93778850,125.31623662,-53.44170234,-28.91881883,-54.22507105,12.26295307
153.98040164,-102.99956857,38.12323256,44.95605532,166.09361142,-64.97513279
-3.12271428,46.72300397,-44.09953343,15.67260640,-1.40784801,-1.26253534
0.00276494

>  <FORMUL>
      570    C34 H30 N2 O5

>  <HET>
 570  D 200      41

>  <HETNAM>
     570 2-(2-BENZOYL-PHENYLAMINO)-3-{4-[2-(5-METHYL-2-PHENYL-OX
   2 570 AZOL-4-YL)-ETHOXY]-PHENYL}-PROPIONIC ACID

>  <HETSYN>
     570 GI262570

>  <Name>
570.pdb

>  <RI>
0

>  <Rbt.Current_Directory>
/home/malgorzata/Desktop/rDOCK_IFD/Wyniki/14a_ppar-gamma/IFD

>  <Rbt.Executable>
rbdock ($Id: //depot/dev/client3/rdock/2013.1/src/exe/rbdock.cxx#4 $)

>  <Rbt.Library>
libRbt.so (2013.1, Build901 2013/11/27)

>  <Rbt.Parameter_File>
/home/malgorzata/Desktop/rDock_2013.1_src/data/scripts/hard_docking.prm

>  <Rbt.Receptor>
cavity.prm

>  <SCORE>
24.8924

>  <SCORE.INTER>
-4.24702

>  <SCORE.INTER.CONST>
1

>  <SCORE.INTER.POLAR>
0

>  <SCORE.INTER.REPUL>
0

>  <SCORE.INTER.ROT>
12

>  <SCORE.INTER.VDW>
-21.647

>  <SCORE.INTER.norm>
-0.103586

>  <SCORE.INTRA>
16.6409

>  <SCORE.INTRA.DIHEDRAL>
26.9631

>  <SCORE.INTRA.DIHEDRAL.0>
12.9748

>  <SCORE.INTRA.POLAR>
0.058673

>  <SCORE.INTRA.POLAR.0>
-0.058673

>  <SCORE.INTRA.REPUL>
0

>  <SCORE.INTRA.REPUL.0>
0

>  <SCORE.INTRA.VDW>
2.95982

>  <SCORE.INTRA.VDW.0>
-4.98062

>  <SCORE.INTRA.norm>
0.405875

>  <SCORE.RESTR>
13.4127

>  <SCORE.RESTR.CAVITY>
13.4127

>  <SCORE.RESTR.norm>
0.327139

>  <SCORE.SYSTEM>
-0.914149

>  <SCORE.SYSTEM.CONST>
0

>  <SCORE.SYSTEM.DIHEDRAL>
0.125285

>  <SCORE.SYSTEM.VDW>
-0.976791

>  <SCORE.SYSTEM.norm>
-0.0222963

>  <SCORE.heavy>
41

>  <SCORE.norm>
0.607132

$$$$
570.pdb
  rDOCK(R)          3D
libRbt.so/2013.1/901 2013/11/27
 43 47  0  0  0  0  0  0  0  0999 V2000
   47.0975  -43.5290   15.9175 N   0  0  0  0  0  0
   47.1957  -43.6698   17.4180 C   0  0  0  0  0  0
   47.9171  -42.4654   18.0998 C   0  0  0  0  0  0
   47.5886  -41.1001   17.4853 C   0  0  0  0  0  0
   46.2118  -40.7207   17.3603 C   0  0  0  0  0  0
   48.6218  -40.2114   17.0393 C   0  0  0  0  0  0
   45.8622  -39.4763   16.8024 C   0  0  0  0  0  0
   48.2816  -38.9598   16.4775 C   0  0  0  0  0  0
   46.8724  -38.5692   16.3493 C   0  0  0  0  0  0
   46.3836  -37.3424   15.8066 O   0  0  0  0  0  0
   47.2994  -44.4596   14.8099 C   0  0  0  0  0  0
   48.0194  -45.7231   15.0050 C   0  0  0  0  0  0
   48.1685  -46.5804   13.8526 C   0  0  0  0  0  0
   47.6470  -46.2205   12.5877 C   0  0  0  0  0  0
   46.9606  -45.0043   12.4192 C   0  0  0  0  0  0
   46.7865  -44.1394   13.5016 C   0  0  0  0  0  0
   47.9886  -46.5974   17.6873 C   0  0  0  0  0  0
   48.7880  -46.6764   18.8897 C   0  0  0  0  0  0
   48.1859  -46.9985   20.1402 C   0  0  0  0  0  0
   46.7827  -47.2446   20.2051 C   0  0  0  0  0  0
   45.9878  -47.1702   19.0258 C   0  0  0  0  0  0
   46.5839  -46.8501   17.7811 C   0  0  0  0  0  0
   48.6503  -46.2492   16.3628 C   0  0  0  0  0  0
   49.8936  -46.3521   16.4026 O   0  0  0  0  0  0
   48.7478  -34.1385   17.5808 O   0  0  0  0  0  0
   48.7879  -34.3866   18.9482 C   0  0  0  0  0  0
   47.6818  -35.2311   19.2031 N   0  0  0  0  0  0
   47.0396  -35.4368   18.0009 C   0  0  0  0  0  0
   47.6961  -34.7409   16.9244 C   0  0  0  0  0  0
   47.3315  -34.6808   15.4355 C   0  0  0  0  0  0
   49.7010  -33.9180   19.8925 C   0  0  0  0  0  0
   49.6610  -34.3250   21.2770 C   0  0  0  0  0  0
   50.6125  -33.8131   22.1971 C   0  0  0  0  0  0
   51.6056  -32.8985   21.7595 C   0  0  0  0  0  0
   51.6587  -32.4896   20.3991 C   0  0  0  0  0  0
   50.7133  -32.9927   19.4708 C   0  0  0  0  0  0
   45.3137  -36.6238   16.4669 C   0  0  0  0  0  0
   45.7546  -36.3299   17.9136 C   0  0  0  0  0  0
   45.7242  -43.6330   19.2583 O   0  0  0  0  0  0
   44.9151  -44.4088   17.3324 O   0  0  0  0  0  0
   45.8456  -43.8991   18.0378 C   0  0  0  0  0  0
   46.8452  -42.6232   15.6257 H   0  0  0  0  0  0
   44.0727  -44.5667   17.7114 H   0  0  0  0  0  0
  1  2  1  0  0  0
  1 11  1  0  0  0
  1 42  1  0  0  0
  2  3  1  0  0  0
  2 41  1  0  0  0
  3  4  1  0  0  0
  4  5  2  0  0  0
  4  6  1  0  0  0
  5  7  1  0  0  0
  6  8  2  0  0  0
  7  9  2  0  0  0
  8  9  1  0  0  0
  9 10  1  0  0  0
 10 37  1  0  0  0
 11 12  2  0  0  0
 11 16  1  0  0  0
 12 13  1  0  0  0
 12 23  1  0  0  0
 13 14  2  0  0  0
 14 15  1  0  0  0
 15 16  2  0  0  0
 17 18  2  0  0  0
 17 22  1  0  0  0
 17 23  1  0  0  0
 18 19  1  0  0  0
 19 20  2  0  0  0
 20 21  1  0  0  0
 21 22  2  0  0  0
 23 24  2  0  0  0
 25 26  1  0  0  0
 25 29  1  0  0  0
 26 27  2  0  0  0
 26 31  1  0  0  0
 27 28  1  0  0  0
 28 29  2  0  0  0
 28 38  1  0  0  0
 29 30  1  0  0  0
 31 32  2  0  0  0
 31 36  1  0  0  0
 32 33  1  0  0  0
 33 34  2  0  0  0
 34 35  1  0  0  0
 35 36  2  0  0  0
 37 38  1  0  0  0
 39 41  2  0  0  0
 40 41  1  0  0  0
 40 43  1  0  0  0
M  END
>  <CHROM.0>
59.13754920,-61.85730554,168.98653073,-169.16852723

>  <CHROM.1>
137.02434414,-16.82379243,38.31379629,-159.00764610,53.64505375,43.64066339
56.82771493,62.20846148,-161.69848146,-176.33437497,-170.79175742,61.17557064
179.19998901,47.73297138,-40.63095498,17.48950670,1.96253174,1.18999778,2.98744872

>  <FORMUL>
      570    C34 H30 N2 O5

>  <HET>
 570  D 200      41

>  <HETNAM>
     570 2-(2-BENZOYL-PHENYLAMINO)-3-{4-[2-(5-METHYL-2-PHENYL-OX
   2 570 AZOL-4-YL)-ETHOXY]-PHENYL}-PROPIONIC ACID

>  <HETSYN>
     570 GI262570

>  <Name>
570.pdb

>  <RI>
0

>  <Rbt.Current_Directory>
/home/malgorzata/Desktop/rDOCK_IFD/Wyniki/14a_ppar-gamma/IFD

>  <Rbt.Executable>
rbdock ($Id: //depot/dev/client3/rdock/2013.1/src/exe/rbdock.cxx#4 $)

>  <Rbt.Library>
libRbt.so (2013.1, Build901 2013/11/27)

>  <Rbt.Parameter_File>
/home/malgorzata/Desktop/rDock_2013.1_src/data/scripts/hard_docking.prm

>  <Rbt.Receptor>
cavity.prm

>  <SCORE>
-6.45501

>  <SCORE.INTER>
-13.038

>  <SCORE.INTER.CONST>
1

>  <SCORE.INTER.POLAR>
-0.452577

>  <SCORE.INTER.REPUL>
0

>  <SCORE.INTER.ROT>
12

>  <SCORE.INTER.VDW>
-28.8993

>  <SCORE.INTER.norm>
-0.318001

>  <SCORE.INTRA>
6.82589

>  <SCORE.INTRA.DIHEDRAL>
8.40924

>  <SCORE.INTRA.DIHEDRAL.0>
12.9748

>  <SCORE.INTRA.POLAR>
0.058673

>  <SCORE.INTRA.POLAR.0>
-0.058673

>  <SCORE.INTRA.REPUL>
0

>  <SCORE.INTRA.REPUL.0>
0

>  <SCORE.INTRA.VDW>
2.42179

>  <SCORE.INTRA.VDW.0>
-4.98062

>  <SCORE.INTRA.norm>
0.166485

>  <SCORE.RESTR>
0.571407

>  <SCORE.RESTR.CAVITY>
0.571407

>  <SCORE.RESTR.norm>
0.0139368

>  <SCORE.SYSTEM>
-0.814278

>  <SCORE.SYSTEM.CONST>
0

>  <SCORE.SYSTEM.DIHEDRAL>
0.374384

>  <SCORE.SYSTEM.VDW>
-1.00147

>  <SCORE.SYSTEM.norm>
-0.0198604

>  <SCORE.heavy>
41

>  <SCORE.norm>
-0.157439

$$$$
570.pdb
  rDOCK(R)          3D
libRbt.so/2013.1/901 2013/11/27
 43 47  0  0  0  0  0  0  0  0999 V2000
   49.0716  -46.4112   17.5866 N   0  0  0  0  0  0
   48.2654  -46.7888   18.8065 C   0  0  0  0  0  0
   46.8505  -46.1307   18.8329 C   0  0  0  0  0  0
   46.8045  -44.7055   18.2705 C   0  0  0  0  0  0
   45.7305  -44.3534   17.3886 C   0  0  0  0  0  0
   47.8048  -43.7348   18.6071 C   0  0  0  0  0  0
   45.6469  -43.0562   16.8480 C   0  0  0  0  0  0
   47.7302  -42.4297   18.0697 C   0  0  0  0  0  0
   46.6309  -42.0671   17.1670 C   0  0  0  0  0  0
   46.4282  -40.7934   16.5545 O   0  0  0  0  0  0
   50.4512  -45.9707   17.3960 C   0  0  0  0  0  0
   50.8472  -45.2196   16.1993 C   0  0  0  0  0  0
   52.2325  -44.8246   16.0987 C   0  0  0  0  0  0
   53.1713  -45.1478   17.1064 C   0  0  0  0  0  0
   52.7737  -45.8697   18.2464 C   0  0  0  0  0  0
   51.4453  -46.2742   18.3945 C   0  0  0  0  0  0
   50.1045  -43.7506   13.9080 C   0  0  0  0  0  0
   50.8469  -42.5436   14.1961 C   0  0  0  0  0  0
   51.0500  -41.5595   13.1860 C   0  0  0  0  0  0
   50.5164  -41.7680   11.8801 C   0  0  0  0  0  0
   49.7830  -42.9534   11.5877 C   0  0  0  0  0  0
   49.5795  -43.9335   12.5902 C   0  0  0  0  0  0
   49.9014  -44.7902   14.9995 C   0  0  0  0  0  0
   48.7791  -45.3337   14.9457 O   0  0  0  0  0  0
   47.3933  -36.3092   17.5735 O   0  0  0  0  0  0
   48.7488  -36.1873   17.8578 C   0  0  0  0  0  0
   49.3193  -37.4241   17.4750 N   0  0  0  0  0  0
   48.2965  -38.2151   16.9974 C   0  0  0  0  0  0
   47.0301  -37.5312   17.0494 C   0  0  0  0  0  0
   45.6380  -38.0223   16.6321 C   0  0  0  0  0  0
   49.4301  -35.1006   18.4054 C   0  0  0  0  0  0
   48.7822  -33.8411   18.6846 C   0  0  0  0  0  0
   49.5250  -32.7660   19.2382 C   0  0  0  0  0  0
   50.9073  -32.9250   19.5178 C   0  0  0  0  0  0
   51.5588  -34.1597   19.2498 C   0  0  0  0  0  0
   50.8283  -35.2405   18.6959 C   0  0  0  0  0  0
   47.4176  -40.2510   15.6468 C   0  0  0  0  0  0
   48.5719  -39.6710   16.4865 C   0  0  0  0  0  0
   47.6265  -48.9126   18.0097 O   0  0  0  0  0  0
   48.5424  -48.8280   20.0393 O   0  0  0  0  0  0
   48.1590  -48.2809   18.9544 C   0  0  0  0  0  0
   48.5623  -46.4751   16.7465 H   0  0  0  0  0  0
   48.8348  -48.2971   20.7540 H   0  0  0  0  0  0
  1  2  1  0  0  0
  1 11  1  0  0  0
  1 42  1  0  0  0
  2  3  1  0  0  0
  2 41  1  0  0  0
  3  4  1  0  0  0
  4  5  2  0  0  0
  4  6  1  0  0  0
  5  7  1  0  0  0
  6  8  2  0  0  0
  7  9  2  0  0  0
  8  9  1  0  0  0
  9 10  1  0  0  0
 10 37  1  0  0  0
 11 12  2  0  0  0
 11 16  1  0  0  0
 12 13  1  0  0  0
 12 23  1  0  0  0
 13 14  2  0  0  0
 14 15  1  0  0  0
 15 16  2  0  0  0
 17 18  2  0  0  0
 17 22  1  0  0  0
 17 23  1  0  0  0
 18 19  1  0  0  0
 19 20  2  0  0  0
 20 21  1  0  0  0
 21 22  2  0  0  0
 23 24  2  0  0  0
 25 26  1  0  0  0
 25 29  1  0  0  0
 26 27  2  0  0  0
 26 31  1  0  0  0
 27 28  1  0  0  0
 28 29  2  0  0  0
 28 38  1  0  0  0
 29 30  1  0  0  0
 31 32  2  0  0  0
 31 36  1  0  0  0
 32 33  1  0  0  0
 33 34  2  0  0  0
 34 35  1  0  0  0
 35 36  2  0  0  0
 37 38  1  0  0  0
 39 41  2  0  0  0
 40 41  1  0  0  0
 40 43  1  0  0  0
M  END
>  <CHROM.0>
61.36249880,68.76519416,13.77092502,20.82550539

>  <CHROM.1>
133.65634002,-157.72467337,-36.33440430,-59.36833864,135.95046291,-118.65701290
-78.60948368,163.09863177,-33.40239367,-4.53959021,-164.09506718,-83.44806826
3.90024480,48.97941454,-41.87208409,16.97955800,1.56803337,-0.97034825,-3.07337610

>  <FORMUL>
      570    C34 H30 N2 O5

>  <HET>
 570  D 200      41

>  <HETNAM>
     570 2-(2-BENZOYL-PHENYLAMINO)-3-{4-[2-(5-METHYL-2-PHENYL-OX
   2 570 AZOL-4-YL)-ETHOXY]-PHENYL}-PROPIONIC ACID

>  <HETSYN>
     570 GI262570

>  <Name>
570.pdb

>  <RI>
0

>  <Rbt.Current_Directory>
/home/malgorzata/Desktop/rDOCK_IFD/Wyniki/14a_ppar-gamma/IFD

>  <Rbt.Executable>
rbdock ($Id: //depot/dev/client3/rdock/2013.1/src/exe/rbdock.cxx#4 $)

>  <Rbt.Library>
libRbt.so (2013.1, Build901 2013/11/27)

>  <Rbt.Parameter_File>
/home/malgorzata/Desktop/rDock_2013.1_src/data/scripts/hard_docking.prm

>  <Rbt.Receptor>
cavity.prm

>  <SCORE>
-9.02928

>  <SCORE.INTER>
-19.8725

>  <SCORE.INTER.CONST>
1

>  <SCORE.INTER.POLAR>
-0.475625

>  <SCORE.INTER.REPUL>
0

>  <SCORE.INTER.ROT>
12

>  <SCORE.INTER.VDW>
-35.6553

>  <SCORE.INTER.norm>
-0.484694

>  <SCORE.INTRA>
5.70657

>  <SCORE.INTRA.DIHEDRAL>
9.2077

>  <SCORE.INTRA.DIHEDRAL.0>
12.9748

>  <SCORE.INTRA.POLAR>
-0.0105024

>  <SCORE.INTRA.POLAR.0>
-0.058673

>  <SCORE.INTRA.REPUL>
0

>  <SCORE.INTRA.REPUL.0>
0

>  <SCORE.INTRA.VDW>
1.13843

>  <SCORE.INTRA.VDW.0>
-4.98062

>  <SCORE.INTRA.norm>
0.139185

>  <SCORE.RESTR>
4.7436

>  <SCORE.RESTR.CAVITY>
4.7436

>  <SCORE.RESTR.norm>
0.115698

>  <SCORE.SYSTEM>
0.393012

>  <SCORE.SYSTEM.CONST>
0

>  <SCORE.SYSTEM.DIHEDRAL>
1.26032

>  <SCORE.SYSTEM.VDW>
-0.237146

>  <SCORE.SYSTEM.norm>
0.00958566

>  <SCORE.heavy>
41

>  <SCORE.norm>
-0.220226

$$$$
570.pdb
  rDOCK(R)          3D
libRbt.so/2013.1/901 2013/11/27
 43 47  0  0  0  0  0  0  0  0999 V2000
   47.9572  -44.7454   17.3928 N   0  0  0  0  0  0
   47.6764  -44.5704   18.8664 C   0  0  0  0  0  0
   46.2722  -43.9522   19.1527 C   0  0  0  0  0  0
   46.1194  -42.4938   18.7064 C   0  0  0  0  0  0
   45.9817  -42.2187   17.3062 C   0  0  0  0  0  0
   46.1137  -41.4173   19.6537 C   0  0  0  0  0  0
   45.8384  -40.8947   16.8496 C   0  0  0  0  0  0
   45.9705  -40.0844   19.2058 C   0  0  0  0  0  0
   45.8287  -39.8008   17.7725 C   0  0  0  0  0  0
   45.6747  -38.5112   17.1795 O   0  0  0  0  0  0
   48.1941  -45.9158   16.5515 C   0  0  0  0  0  0
   47.7860  -45.9296   15.1422 C   0  0  0  0  0  0
   48.0631  -47.1298   14.3886 C   0  0  0  0  0  0
   48.6980  -48.2472   14.9798 C   0  0  0  0  0  0
   49.0811  -48.2163   16.3330 C   0  0  0  0  0  0
   48.8385  -47.0794   17.1066 C   0  0  0  0  0  0
   46.4186  -44.7366   12.9819 C   0  0  0  0  0  0
   45.0919  -44.1834   12.8239 C   0  0  0  0  0  0
   44.4650  -44.1585   11.5446 C   0  0  0  0  0  0
   45.1531  -44.6836   10.4113 C   0  0  0  0  0  0
   46.4595  -45.2314   10.5579 C   0  0  0  0  0  0
   47.0852  -45.2576   11.8287 C   0  0  0  0  0  0
   47.0712  -44.7511   14.3557 C   0  0  0  0  0  0
   47.0766  -43.6276   14.8994 O   0  0  0  0  0  0
   47.7013  -40.1179   14.1438 O   0  0  0  0  0  0
   48.7016  -40.8013   14.8261 C   0  0  0  0  0  0
   48.9144  -40.0584   16.0111 N   0  0  0  0  0  0
   48.0543  -38.9817   15.9781 C   0  0  0  0  0  0
   47.2539  -38.9804   14.7808 C   0  0  0  0  0  0
   46.1814  -37.9828   14.3252 C   0  0  0  0  0  0
   49.3738  -41.9644   14.4514 C   0  0  0  0  0  0
   50.0440  -42.8136   15.4073 C   0  0  0  0  0  0
   50.7173  -43.9839   14.9703 C   0  0  0  0  0  0
   50.7351  -44.3226   13.5922 C   0  0  0  0  0  0
   50.0784  -43.4972   12.6393 C   0  0  0  0  0  0
   49.4035  -42.3251   13.0630 C   0  0  0  0  0  0
   46.6057  -37.4461   17.4895 C   0  0  0  0  0  0
   48.0255  -37.9344   17.1437 C   0  0  0  0  0  0
   46.8328  -46.5831   19.7555 O   0  0  0  0  0  0
   48.9835  -46.1358   20.1296 O   0  0  0  0  0  0
   47.8502  -45.8616   19.6160 C   0  0  0  0  0  0
   47.9866  -43.8954   16.8970 H   0  0  0  0  0  0
   49.6961  -45.5339   20.0408 H   0  0  0  0  0  0
  1  2  1  0  0  0
  1 11  1  0  0  0
  1 42  1  0  0  0
  2  3  1  0  0  0
  2 41  1  0  0  0
  3  4  1  0  0  0
  4  5  2  0  0  0
  4  6  1  0  0  0
  5  7  1  0  0  0
  6  8  2  0  0  0
  7  9  2  0  0  0
  8  9  1  0  0  0
  9 10  1  0  0  0
 10 37  1  0  0  0
 11 12  2  0  0  0
 11 16  1  0  0  0
 12 13  1  0  0  0
 12 23  1  0  0  0
 13 14  2  0  0  0
 14 15  1  0  0  0
 15 16  2  0  0  0
 17 18  2  0  0  0
 17 22  1  0  0  0
 17 23  1  0  0  0
 18 19  1  0  0  0
 19 20  2  0  0  0
 20 21  1  0  0  0
 21 22  2  0  0  0
 23 24  2  0  0  0
 25 26  1  0  0  0
 25 29  1  0  0  0
 26 27  2  0  0  0
 26 31  1  0  0  0
 27 28  1  0  0  0
 28 29  2  0  0  0
 28 38  1  0  0  0
 29 30  1  0  0  0
 31 32  2  0  0  0
 31 36  1  0  0  0
 32 33  1  0  0  0
 33 34  2  0  0  0
 34 35  1  0  0  0
 35 36  2  0  0  0
 37 38  1  0  0  0
 39 41  2  0  0  0
 40 41  1  0  0  0
 40 43  1  0  0  0
M  END
>  <CHROM.0>
-65.07976131,-57.32462797,19.29078759,-178.09829766

>  <CHROM.1>
-116.61674759,148.69230853,-67.74435279,-91.80183754,74.52450446,-128.05158832
56.70764171,-169.18961867,130.55977901,-158.45869280,-141.18393933,29.17899303
0.24525960,47.51428832,-43.08303137,15.77265042,-0.32035975,-1.40217215,1.49500949

>  <FORMUL>
      570    C34 H30 N2 O5

>  <HET>
 570  D 200      41

>  <HETNAM>
     570 2-(2-BENZOYL-PHENYLAMINO)-3-{4-[2-(5-METHYL-2-PHENYL-OX
   2 570 AZOL-4-YL)-ETHOXY]-PHENYL}-PROPIONIC ACID

>  <HETSYN>
     570 GI262570

>  <Name>
570.pdb

>  <RI>
0

>  <Rbt.Current_Directory>
/home/malgorzata/Desktop/rDOCK_IFD/Wyniki/14a_ppar-gamma/IFD

>  <Rbt.Executable>
rbdock ($Id: //depot/dev/client3/rdock/2013.1/src/exe/rbdock.cxx#4 $)

>  <Rbt.Library>
libRbt.so (2013.1, Build901 2013/11/27)

>  <Rbt.Parameter_File>
/home/malgorzata/Desktop/rDock_2013.1_src/data/scripts/hard_docking.prm

>  <Rbt.Receptor>
cavity.prm

>  <SCORE>
3.20261

>  <SCORE.INTER>
-7.01989

>  <SCORE.INTER.CONST>
1

>  <SCORE.INTER.POLAR>
0

>  <SCORE.INTER.REPUL>
0.182504

>  <SCORE.INTER.ROT>
12

>  <SCORE.INTER.VDW>
-25.3324

>  <SCORE.INTER.norm>
-0.171217

>  <SCORE.INTRA>
3.17643

>  <SCORE.INTRA.DIHEDRAL>
13.8269

>  <SCORE.INTRA.DIHEDRAL.0>
12.9748

>  <SCORE.INTRA.POLAR>
0.0154688

>  <SCORE.INTRA.POLAR.0>
-0.058673

>  <SCORE.INTRA.REPUL>
0

>  <SCORE.INTRA.REPUL.0>
0

>  <SCORE.INTRA.VDW>
-3.78964

>  <SCORE.INTRA.VDW.0>
-4.98062

>  <SCORE.INTRA.norm>
0.0774738

>  <SCORE.RESTR>
7.28995

>  <SCORE.RESTR.CAVITY>
7.28995

>  <SCORE.RESTR.norm>
0.177804

>  <SCORE.SYSTEM>
-0.243881

>  <SCORE.SYSTEM.CONST>
0

>  <SCORE.SYSTEM.DIHEDRAL>
0.682882

>  <SCORE.SYSTEM.VDW>
-0.585322

>  <SCORE.SYSTEM.norm>
-0.00594832

>  <SCORE.heavy>
41

>  <SCORE.norm>
0.0781124

$$$$
