570.pdb
  rDOCK(R)          3D
libRbt.so/2013.1/901 2013/11/27
 43 47  0  0  0  0  0  0  0  0999 V2000
   48.0381  -38.8371   18.0471 N   0  0  0  0  0  0
   47.5346  -39.9211   18.9703 C   0  0  0  0  0  0
   48.0228  -41.3467   18.5639 C   0  0  0  0  0  0
   47.6215  -41.7735   17.1474 C   0  0  0  0  0  0
   48.6068  -41.7053   16.1084 C   0  0  0  0  0  0
   46.2954  -42.2315   16.8506 C   0  0  0  0  0  0
   48.2841  -42.0874   14.7924 C   0  0  0  0  0  0
   45.9610  -42.6172   15.5326 C   0  0  0  0  0  0
   46.9688  -42.5487   14.4674 C   0  0  0  0  0  0
   46.7746  -42.9061   13.0988 O   0  0  0  0  0  0
   47.6002  -38.3523   16.7407 C   0  0  0  0  0  0
   48.1463  -37.1155   16.1706 C   0  0  0  0  0  0
   47.6551  -36.7160   14.8728 C   0  0  0  0  0  0
   46.6874  -37.4794   14.1785 C   0  0  0  0  0  0
   46.1742  -38.6620   14.7413 C   0  0  0  0  0  0
   46.6168  -39.0948   15.9930 C   0  0  0  0  0  0
   49.4254  -35.7604   18.2890 C   0  0  0  0  0  0
   48.4437  -36.1442   19.2790 C   0  0  0  0  0  0
   48.6087  -35.7732   20.6447 C   0  0  0  0  0  0
   49.7523  -35.0171   21.0373 C   0  0  0  0  0  0
   50.7236  -34.6337   20.0689 C   0  0  0  0  0  0
   50.5621  -35.0012   18.7102 C   0  0  0  0  0  0
   49.2321  -36.1690   16.8367 C   0  0  0  0  0  0
   50.0388  -35.6091   16.0662 O   0  0  0  0  0  0
   45.5430  -45.7234   16.5719 O   0  0  0  0  0  0
   46.9143  -45.9498   16.6079 C   0  0  0  0  0  0
   47.3485  -45.8026   15.2695 N   0  0  0  0  0  0
   46.2365  -45.5096   14.5094 C   0  0  0  0  0  0
   45.0442  -45.4546   15.3153 C   0  0  0  0  0  0
   43.5959  -45.1702   14.8970 C   0  0  0  0  0  0
   47.7176  -46.2612   17.7046 C   0  0  0  0  0  0
   49.1431  -46.4581   17.5895 C   0  0  0  0  0  0
   49.9123  -46.7783   18.7383 C   0  0  0  0  0  0
   49.2827  -46.9073   20.0037 C   0  0  0  0  0  0
   47.8802  -46.7149   20.1331 C   0  0  0  0  0  0
   47.1008  -46.3960   18.9931 C   0  0  0  0  0  0
   47.3153  -44.1458   12.5814 C   0  0  0  0  0  0
   46.3512  -45.2856   12.9625 C   0  0  0  0  0  0
   47.0372  -39.9433   21.2737 O   0  0  0  0  0  0
   48.9744  -39.0243   20.6666 O   0  0  0  0  0  0
   47.8845  -39.6292   20.4027 C   0  0  0  0  0  0
   48.8234  -38.3584   18.3984 H   0  0  0  0  0  0
   49.1876  -38.8084   21.5532 H   0  0  0  0  0  0
  1  2  1  0  0  0
  1 11  1  0  0  0
  1 42  1  0  0  0
  2  3  1  0  0  0
  2 41  1  0  0  0
  3  4  1  0  0  0
  4  5  2  0  0  0
  4  6  1  0  0  0
  5  7  1  0  0  0
  6  8  2  0  0  0
  7  9  2  0  0  0
  8  9  1  0  0  0
  9 10  1  0  0  0
 10 37  1  0  0  0
 11 12  2  0  0  0
 11 16  1  0  0  0
 12 13  1  0  0  0
 12 23  1  0  0  0
 13 14  2  0  0  0
 14 15  1  0  0  0
 15 16  2  0  0  0
 17 18  2  0  0  0
 17 22  1  0  0  0
 17 23  1  0  0  0
 18 19  1  0  0  0
 19 20  2  0  0  0
 20 21  1  0  0  0
 21 22  2  0  0  0
 23 24  2  0  0  0
 25 26  1  0  0  0
 25 29  1  0  0  0
 26 27  2  0  0  0
 26 31  1  0  0  0
 27 28  1  0  0  0
 28 29  2  0  0  0
 28 38  1  0  0  0
 29 30  1  0  0  0
 31 32  2  0  0  0
 31 36  1  0  0  0
 32 33  1  0  0  0
 33 34  2  0  0  0
 34 35  1  0  0  0
 35 36  2  0  0  0
 37 38  1  0  0  0
 39 41  2  0  0  0
 40 41  1  0  0  0
 40 43  1  0  0  0
M  END
>  <CHROM.0>
-142.21906769,61.09109576,-59.89563739,5.98330699,4.85640626

>  <CHROM.1>
81.01496962,169.31119224,-58.33922706,143.07323502,101.77892663,75.15313356
81.27107796,-38.06538085,-6.67333336,-179.40029820,-58.16020667,-64.12628122
177.69608226,47.72215444,-41.19165564,17.11451677,-0.90752872,1.21551082
2.75903791

>  <FORMUL>
      570    C34 H30 N2 O5

>  <HET>
 570  D 200      41

>  <HETNAM>
     570 2-(2-BENZOYL-PHENYLAMINO)-3-{4-[2-(5-METHYL-2-PHENYL-OX
   2 570 AZOL-4-YL)-ETHOXY]-PHENYL}-PROPIONIC ACID

>  <HETSYN>
     570 GI262570

>  <Name>
570.pdb

>  <RI>
0

>  <Rbt.Current_Directory>
/home/malgorzata/Desktop/rDOCK_IFD/test14/IFD

>  <Rbt.Executable>
rbdock ($Id: //depot/dev/client3/rdock/2013.1/src/exe/rbdock.cxx#4 $)

>  <Rbt.Library>
libRbt.so (2013.1, Build901 2013/11/27)

>  <Rbt.Parameter_File>
/home/malgorzata/Desktop/rDock_2013.1_src/data/scripts/hard_docking.prm

>  <Rbt.Receptor>
cavity.prm

>  <SCORE>
-13.4839

>  <SCORE.INTER>
-11.8722

>  <SCORE.INTER.CONST>
1

>  <SCORE.INTER.POLAR>
-0.436666

>  <SCORE.INTER.REPUL>
0

>  <SCORE.INTER.ROT>
12

>  <SCORE.INTER.VDW>
-27.7876

>  <SCORE.INTER.norm>
-0.289566

>  <SCORE.INTRA>
-1.53679

>  <SCORE.INTRA.DIHEDRAL>
3.68971

>  <SCORE.INTRA.DIHEDRAL.0>
12.9748

>  <SCORE.INTRA.POLAR>
0.0225594

>  <SCORE.INTRA.POLAR.0>
-0.058673

>  <SCORE.INTRA.REPUL>
0

>  <SCORE.INTRA.REPUL.0>
0

>  <SCORE.INTRA.VDW>
-3.45834

>  <SCORE.INTRA.VDW.0>
-4.98062

>  <SCORE.INTRA.norm>
-0.0374826

>  <SCORE.RESTR>
0

>  <SCORE.RESTR.CAVITY>
0

>  <SCORE.RESTR.norm>
0

>  <SCORE.SYSTEM>
-0.074855

>  <SCORE.SYSTEM.CONST>
0

>  <SCORE.SYSTEM.DIHEDRAL>
0.525273

>  <SCORE.SYSTEM.POLAR>
-0.163708

>  <SCORE.SYSTEM.REPUL>
0.0849455

>  <SCORE.SYSTEM.VDW>
-0.205612

>  <SCORE.SYSTEM.norm>
-0.00182573

>  <SCORE.heavy>
41

>  <SCORE.norm>
-0.328875

$$$$
570.pdb
  rDOCK(R)          3D
libRbt.so/2013.1/901 2013/11/27
 43 47  0  0  0  0  0  0  0  0999 V2000
   46.5836  -37.8967   16.4692 N   0  0  0  0  0  0
   47.1342  -36.8529   17.4115 C   0  0  0  0  0  0
   47.9743  -35.7556   16.6862 C   0  0  0  0  0  0
   49.1697  -35.2367   17.4933 C   0  0  0  0  0  0
   48.9168  -34.3806   18.6149 C   0  0  0  0  0  0
   50.5162  -35.5884   17.1475 C   0  0  0  0  0  0
   49.9834  -33.8802   19.3858 C   0  0  0  0  0  0
   51.5941  -35.0914   17.9147 C   0  0  0  0  0  0
   51.3372  -34.2151   19.0640 C   0  0  0  0  0  0
   52.3221  -33.6438   19.9255 O   0  0  0  0  0  0
   46.6220  -38.0540   15.0175 C   0  0  0  0  0  0
   46.6605  -39.3852   14.4015 C   0  0  0  0  0  0
   46.6949  -39.4421   12.9590 C   0  0  0  0  0  0
   46.6944  -38.2679   12.1699 C   0  0  0  0  0  0
   46.6585  -37.0000   12.7781 C   0  0  0  0  0  0
   46.6221  -36.8885   14.1696 C   0  0  0  0  0  0
   46.9932  -41.1081   16.6107 C   0  0  0  0  0  0
   47.8109  -40.2011   17.3853 C   0  0  0  0  0  0
   48.1287  -40.4922   18.7433 C   0  0  0  0  0  0
   47.6355  -41.6885   19.3426 C   0  0  0  0  0  0
   46.8304  -42.5881   18.5870 C   0  0  0  0  0  0
   46.5129  -42.3012   17.2365 C   0  0  0  0  0  0
   46.6630  -40.7773   15.1634 C   0  0  0  0  0  0
   46.4121  -41.7921   14.4814 O   0  0  0  0  0  0
   52.6208  -38.2490   23.3570 O   0  0  0  0  0  0
   53.8606  -37.8452   23.8397 C   0  0  0  0  0  0
   54.2743  -36.8066   22.9726 N   0  0  0  0  0  0
   53.2857  -36.6475   22.0253 C   0  0  0  0  0  0
   52.1981  -37.5678   22.2358 C   0  0  0  0  0  0
   50.9041  -37.7494   21.4321 C   0  0  0  0  0  0
   54.5725  -38.3374   24.9333 C   0  0  0  0  0  0
   55.9528  -37.9926   25.1776 C   0  0  0  0  0  0
   56.6310  -38.5263   26.3042 C   0  0  0  0  0  0
   55.9550  -39.4018   27.1935 C   0  0  0  0  0  0
   54.5953  -39.7493   26.9669 C   0  0  0  0  0  0
   53.9074  -39.2239   25.8447 C   0  0  0  0  0  0
   52.6458  -34.2745   21.1882 C   0  0  0  0  0  0
   53.4185  -35.5740   20.8912 C   0  0  0  0  0  0
   44.8610  -36.5192   17.9356 O   0  0  0  0  0  0
   46.3534  -35.3893   19.1444 O   0  0  0  0  0  0
   46.0441  -36.2274   18.2361 C   0  0  0  0  0  0
   46.0988  -38.6205   16.9279 H   0  0  0  0  0  0
   45.6800  -34.9510   19.6266 H   0  0  0  0  0  0
  1  2  1  0  0  0
  1 11  1  0  0  0
  1 42  1  0  0  0
  2  3  1  0  0  0
  2 41  1  0  0  0
  3  4  1  0  0  0
  4  5  2  0  0  0
  4  6  1  0  0  0
  5  7  1  0  0  0
  6  8  2  0  0  0
  7  9  2  0  0  0
  8  9  1  0  0  0
  9 10  1  0  0  0
 10 37  1  0  0  0
 11 12  2  0  0  0
 11 16  1  0  0  0
 12 13  1  0  0  0
 12 23  1  0  0  0
 13 14  2  0  0  0
 14 15  1  0  0  0
 15 16  2  0  0  0
 17 18  2  0  0  0
 17 22  1  0  0  0
 17 23  1  0  0  0
 18 19  1  0  0  0
 19 20  2  0  0  0
 20 21  1  0  0  0
 21 22  2  0  0  0
 23 24  2  0  0  0
 25 26  1  0  0  0
 25 29  1  0  0  0
 26 27  2  0  0  0
 26 31  1  0  0  0
 27 28  1  0  0  0
 28 29  2  0  0  0
 28 38  1  0  0  0
 29 30  1  0  0  0
 31 32  2  0  0  0
 31 36  1  0  0  0
 32 33  1  0  0  0
 33 34  2  0  0  0
 34 35  1  0  0  0
 35 36  2  0  0  0
 37 38  1  0  0  0
 39 41  2  0  0  0
 40 41  1  0  0  0
 40 43  1  0  0  0
M  END
>  <CHROM.0>
-146.38270110,179.16597265,-137.12811006,12.75140647,-174.68016991

>  <CHROM.1>
-3.47436034,147.46668812,-144.82939043,-8.13589865,-72.89240613,82.87584827
71.11246050,-18.28168580,-21.90194096,168.45288536,-98.81397714,-154.42153073
175.99145909,49.83165171,-37.73386825,19.24555930,2.95329629,-0.85188224
-0.34529567

>  <FORMUL>
      570    C34 H30 N2 O5

>  <HET>
 570  D 200      41

>  <HETNAM>
     570 2-(2-BENZOYL-PHENYLAMINO)-3-{4-[2-(5-METHYL-2-PHENYL-OX
   2 570 AZOL-4-YL)-ETHOXY]-PHENYL}-PROPIONIC ACID

>  <HETSYN>
     570 GI262570

>  <Name>
570.pdb

>  <RI>
0

>  <Rbt.Current_Directory>
/home/malgorzata/Desktop/rDOCK_IFD/test14/IFD

>  <Rbt.Executable>
rbdock ($Id: //depot/dev/client3/rdock/2013.1/src/exe/rbdock.cxx#4 $)

>  <Rbt.Library>
libRbt.so (2013.1, Build901 2013/11/27)

>  <Rbt.Parameter_File>
/home/malgorzata/Desktop/rDock_2013.1_src/data/scripts/hard_docking.prm

>  <Rbt.Receptor>
cavity.prm

>  <SCORE>
-7.62062

>  <SCORE.INTER>
-15.8307

>  <SCORE.INTER.CONST>
1

>  <SCORE.INTER.POLAR>
0

>  <SCORE.INTER.REPUL>
0.00553182

>  <SCORE.INTER.ROT>
12

>  <SCORE.INTER.VDW>
-33.2584

>  <SCORE.INTER.norm>
-0.386116

>  <SCORE.INTRA>
6.81025

>  <SCORE.INTRA.DIHEDRAL>
10.9978

>  <SCORE.INTRA.DIHEDRAL.0>
12.9748

>  <SCORE.INTRA.POLAR>
0.058673

>  <SCORE.INTRA.POLAR.0>
-0.058673

>  <SCORE.INTRA.REPUL>
0

>  <SCORE.INTRA.REPUL.0>
0

>  <SCORE.INTRA.VDW>
1.11184

>  <SCORE.INTRA.VDW.0>
-4.98062

>  <SCORE.INTRA.norm>
0.166104

>  <SCORE.RESTR>
0

>  <SCORE.RESTR.CAVITY>
0

>  <SCORE.RESTR.norm>
0

>  <SCORE.SYSTEM>
1.39988

>  <SCORE.SYSTEM.CONST>
0

>  <SCORE.SYSTEM.DIHEDRAL>
6.55766

>  <SCORE.SYSTEM.POLAR>
-0.148154

>  <SCORE.SYSTEM.REPUL>
0.104869

>  <SCORE.SYSTEM.VDW>
-1.89957

>  <SCORE.SYSTEM.norm>
0.0341435

>  <SCORE.heavy>
41

>  <SCORE.norm>
-0.185869

$$$$
570.pdb
  rDOCK(R)          3D
libRbt.so/2013.1/901 2013/11/27
 43 47  0  0  0  0  0  0  0  0999 V2000
   49.4091  -40.7350   18.2245 N   0  0  0  0  0  0
   50.4554  -39.8934   18.9157 C   0  0  0  0  0  0
   51.2154  -38.9398   17.9415 C   0  0  0  0  0  0
   51.3649  -37.5020   18.4513 C   0  0  0  0  0  0
   51.8705  -37.2962   19.7769 C   0  0  0  0  0  0
   51.0107  -36.3773   17.6353 C   0  0  0  0  0  0
   52.0253  -35.9934   20.2876 C   0  0  0  0  0  0
   51.1620  -35.0652   18.1385 C   0  0  0  0  0  0
   51.6803  -34.8525   19.4953 C   0  0  0  0  0  0
   51.8868  -33.5907   20.1307 O   0  0  0  0  0  0
   48.0184  -41.0564   18.5349 C   0  0  0  0  0  0
   47.0168  -41.1881   17.4708 C   0  0  0  0  0  0
   45.6677  -41.5097   17.8731 C   0  0  0  0  0  0
   45.3216  -41.6883   19.2331 C   0  0  0  0  0  0
   46.2952  -41.5569   20.2399 C   0  0  0  0  0  0
   47.6155  -41.2490   19.9052 C   0  0  0  0  0  0
   47.2285  -42.0422   14.7903 C   0  0  0  0  0  0
   46.3259  -43.1686   14.8783 C   0  0  0  0  0  0
   46.2731  -44.1379   13.8353 C   0  0  0  0  0  0
   47.1178  -43.9946   12.6954 C   0  0  0  0  0  0
   48.0106  -42.8890   12.6008 C   0  0  0  0  0  0
   48.0653  -41.9238   13.6364 C   0  0  0  0  0  0
   47.2674  -41.0171   15.9132 C   0  0  0  0  0  0
   47.6078  -39.8826   15.5195 O   0  0  0  0  0  0
   48.1834  -34.4467   17.1200 O   0  0  0  0  0  0
   47.6593  -34.8965   18.3268 C   0  0  0  0  0  0
   48.2833  -34.1040   19.3188 N   0  0  0  0  0  0
   49.1410  -33.2404   18.6718 C   0  0  0  0  0  0
   49.1102  -33.4342   17.2451 C   0  0  0  0  0  0
   49.8955  -32.7091   16.1447 C   0  0  0  0  0  0
   46.7256  -35.9085   18.5482 C   0  0  0  0  0  0
   45.3803  -35.6366   18.9955 C   0  0  0  0  0  0
   44.4718  -36.7057   19.2097 C   0  0  0  0  0  0
   44.8832  -38.0454   18.9861 C   0  0  0  0  0  0
   46.2042  -38.3288   18.5441 C   0  0  0  0  0  0
   47.1212  -37.2700   18.3278 C   0  0  0  0  0  0
   50.7643  -32.8438   20.6589 C   0  0  0  0  0  0
   50.0089  -32.2113   19.4743 C   0  0  0  0  0  0
   50.4088  -39.2673   21.1871 O   0  0  0  0  0  0
   48.8252  -38.4154   19.8710 O   0  0  0  0  0  0
   49.8686  -39.1208   20.0638 C   0  0  0  0  0  0
   49.7307  -41.1534   17.3934 H   0  0  0  0  0  0
   48.4868  -37.8808   20.5621 H   0  0  0  0  0  0
  1  2  1  0  0  0
  1 11  1  0  0  0
  1 42  1  0  0  0
  2  3  1  0  0  0
  2 41  1  0  0  0
  3  4  1  0  0  0
  4  5  2  0  0  0
  4  6  1  0  0  0
  5  7  1  0  0  0
  6  8  2  0  0  0
  7  9  2  0  0  0
  8  9  1  0  0  0
  9 10  1  0  0  0
 10 37  1  0  0  0
 11 12  2  0  0  0
 11 16  1  0  0  0
 12 13  1  0  0  0
 12 23  1  0  0  0
 13 14  2  0  0  0
 14 15  1  0  0  0
 15 16  2  0  0  0
 17 18  2  0  0  0
 17 22  1  0  0  0
 17 23  1  0  0  0
 18 19  1  0  0  0
 19 20  2  0  0  0
 20 21  1  0  0  0
 21 22  2  0  0  0
 23 24  2  0  0  0
 25 26  1  0  0  0
 25 29  1  0  0  0
 26 27  2  0  0  0
 26 31  1  0  0  0
 27 28  1  0  0  0
 28 29  2  0  0  0
 28 38  1  0  0  0
 29 30  1  0  0  0
 31 32  2  0  0  0
 31 36  1  0  0  0
 32 33  1  0  0  0
 33 34  2  0  0  0
 34 35  1  0  0  0
 35 36  2  0  0  0
 37 38  1  0  0  0
 39 41  2  0  0  0
 40 41  1  0  0  0
 40 43  1  0  0  0
M  END
>  <CHROM.0>
-142.54203341,-54.53191924,-49.19194531,29.53887765,129.16416181

>  <CHROM.1>
-133.57401112,143.48171095,133.86313900,125.08389036,50.01162061,-103.46206806
-75.31076043,111.87596562,31.53481096,-109.87971398,48.93086808,75.44384958
-175.54524343,48.50237046,-38.09454212,18.00066804,-1.91402180,-0.06900177
0.37974166

>  <FORMUL>
      570    C34 H30 N2 O5

>  <HET>
 570  D 200      41

>  <HETNAM>
     570 2-(2-BENZOYL-PHENYLAMINO)-3-{4-[2-(5-METHYL-2-PHENYL-OX
   2 570 AZOL-4-YL)-ETHOXY]-PHENYL}-PROPIONIC ACID

>  <HETSYN>
     570 GI262570

>  <Name>
570.pdb

>  <RI>
0

>  <Rbt.Current_Directory>
/home/malgorzata/Desktop/rDOCK_IFD/test14/IFD

>  <Rbt.Executable>
rbdock ($Id: //depot/dev/client3/rdock/2013.1/src/exe/rbdock.cxx#4 $)

>  <Rbt.Library>
libRbt.so (2013.1, Build901 2013/11/27)

>  <Rbt.Parameter_File>
/home/malgorzata/Desktop/rDock_2013.1_src/data/scripts/hard_docking.prm

>  <Rbt.Receptor>
cavity.prm

>  <SCORE>
27.8113

>  <SCORE.INTER>
11.2442

>  <SCORE.INTER.CONST>
1

>  <SCORE.INTER.POLAR>
0

>  <SCORE.INTER.REPUL>
0

>  <SCORE.INTER.ROT>
12

>  <SCORE.INTER.VDW>
-6.15585

>  <SCORE.INTER.norm>
0.274248

>  <SCORE.INTRA>
16.2731

>  <SCORE.INTRA.DIHEDRAL>
32.4253

>  <SCORE.INTRA.DIHEDRAL.0>
12.9748

>  <SCORE.INTRA.POLAR>
0.058673

>  <SCORE.INTRA.POLAR.0>
-0.058673

>  <SCORE.INTRA.REPUL>
0

>  <SCORE.INTRA.REPUL.0>
0

>  <SCORE.INTRA.VDW>
-0.139064

>  <SCORE.INTRA.VDW.0>
-4.98062

>  <SCORE.INTRA.norm>
0.396905

>  <SCORE.RESTR>
0

>  <SCORE.RESTR.CAVITY>
0

>  <SCORE.RESTR.norm>
0

>  <SCORE.SYSTEM>
0.294012

>  <SCORE.SYSTEM.CONST>
0

>  <SCORE.SYSTEM.DIHEDRAL>
5.15762

>  <SCORE.SYSTEM.POLAR>
-0.619122

>  <SCORE.SYSTEM.REPUL>
0.086433

>  <SCORE.SYSTEM.VDW>
-0.611948

>  <SCORE.SYSTEM.norm>
0.00717103

>  <SCORE.heavy>
41

>  <SCORE.norm>
0.678324

$$$$
570.pdb
  rDOCK(R)          3D
libRbt.so/2013.1/901 2013/11/27
 43 47  0  0  0  0  0  0  0  0999 V2000
   50.9266  -36.8757   20.3530 N   0  0  0  0  0  0
   50.8851  -38.3853   20.3373 C   0  0  0  0  0  0
   49.4335  -38.9573   20.2969 C   0  0  0  0  0  0
   48.9044  -39.2425   18.8869 C   0  0  0  0  0  0
   48.4411  -40.5653   18.5856 C   0  0  0  0  0  0
   48.8677  -38.2221   17.8800 C   0  0  0  0  0  0
   47.9461  -40.8737   17.3043 C   0  0  0  0  0  0
   48.3728  -38.5213   16.5904 C   0  0  0  0  0  0
   47.8974  -39.8751   16.2802 C   0  0  0  0  0  0
   47.3723  -40.3181   15.0286 O   0  0  0  0  0  0
   49.9089  -35.8489   20.5616 C   0  0  0  0  0  0
   50.1670  -34.6928   21.4273 C   0  0  0  0  0  0
   49.1022  -33.7281   21.5719 C   0  0  0  0  0  0
   47.8614  -33.8880   20.9115 C   0  0  0  0  0  0
   47.6315  -35.0037   20.0862 C   0  0  0  0  0  0
   48.6285  -35.9655   19.9102 C   0  0  0  0  0  0
   52.4781  -35.3348   22.9127 C   0  0  0  0  0  0
   52.1926  -36.7517   22.9553 C   0  0  0  0  0  0
   53.0915  -37.6530   23.5954 C   0  0  0  0  0  0
   54.2827  -37.1521   24.1986 C   0  0  0  0  0  0
   54.5714  -35.7579   24.1625 C   0  0  0  0  0  0
   53.6793  -34.8595   23.5268 C   0  0  0  0  0  0
   51.5069  -34.3899   22.2218 C   0  0  0  0  0  0
   51.8136  -33.1891   22.3704 O   0  0  0  0  0  0
   47.0481  -35.1186   15.8789 O   0  0  0  0  0  0
   47.6430  -35.0424   14.6245 C   0  0  0  0  0  0
   47.3032  -36.2551   13.9801 N   0  0  0  0  0  0
   46.5433  -36.9890   14.8655 C   0  0  0  0  0  0
   46.3594  -36.2897   16.1110 C   0  0  0  0  0  0
   45.5977  -36.7230   17.3701 C   0  0  0  0  0  0
   48.4164  -34.0134   14.0879 C   0  0  0  0  0  0
   48.8400  -34.0017   12.7079 C   0  0  0  0  0  0
   49.6306  -32.9312   12.2151 C   0  0  0  0  0  0
   50.0085  -31.8693   13.0775 C   0  0  0  0  0  0
   49.5978  -31.8660   14.4384 C   0  0  0  0  0  0
   48.8091  -32.9300   14.9429 C   0  0  0  0  0  0
   47.0883  -39.3662   13.9749 C   0  0  0  0  0  0
   45.9944  -38.4052   14.4788 C   0  0  0  0  0  0
   51.6431  -38.3536   18.1062 O   0  0  0  0  0  0
   52.3702  -40.0179   19.3973 O   0  0  0  0  0  0
   51.7074  -38.9459   19.2109 C   0  0  0  0  0  0
   51.8249  -36.5079   20.1887 H   0  0  0  0  0  0
   52.3899  -40.4151   20.2458 H   0  0  0  0  0  0
  1  2  1  0  0  0
  1 11  1  0  0  0
  1 42  1  0  0  0
  2  3  1  0  0  0
  2 41  1  0  0  0
  3  4  1  0  0  0
  4  5  2  0  0  0
  4  6  1  0  0  0
  5  7  1  0  0  0
  6  8  2  0  0  0
  7  9  2  0  0  0
  8  9  1  0  0  0
  9 10  1  0  0  0
 10 37  1  0  0  0
 11 12  2  0  0  0
 11 16  1  0  0  0
 12 13  1  0  0  0
 12 23  1  0  0  0
 13 14  2  0  0  0
 14 15  1  0  0  0
 15 16  2  0  0  0
 17 18  2  0  0  0
 17 22  1  0  0  0
 17 23  1  0  0  0
 18 19  1  0  0  0
 19 20  2  0  0  0
 20 21  1  0  0  0
 21 22  2  0  0  0
 23 24  2  0  0  0
 25 26  1  0  0  0
 25 29  1  0  0  0
 26 27  2  0  0  0
 26 31  1  0  0  0
 27 28  1  0  0  0
 28 29  2  0  0  0
 28 38  1  0  0  0
 29 30  1  0  0  0
 31 32  2  0  0  0
 31 36  1  0  0  0
 32 33  1  0  0  0
 33 34  2  0  0  0
 34 35  1  0  0  0
 35 36  2  0  0  0
 37 38  1  0  0  0
 39 41  2  0  0  0
 40 41  1  0  0  0
 40 43  1  0  0  0
M  END
>  <CHROM.0>
-55.09051769,-52.31205646,-165.39988504,27.49681930,177.33970110

>  <CHROM.1>
12.09501473,135.51879739,92.94195709,-40.75284301,123.96665426,170.98113502
-62.64394525,-36.19901843,-3.03220873,-172.47485262,53.01939404,104.77170723
-4.27181779,49.52858148,-36.51600784,18.31123820,0.29782843,1.02708316,2.81449285

>  <FORMUL>
      570    C34 H30 N2 O5

>  <HET>
 570  D 200      41

>  <HETNAM>
     570 2-(2-BENZOYL-PHENYLAMINO)-3-{4-[2-(5-METHYL-2-PHENYL-OX
   2 570 AZOL-4-YL)-ETHOXY]-PHENYL}-PROPIONIC ACID

>  <HETSYN>
     570 GI262570

>  <Name>
570.pdb

>  <RI>
0

>  <Rbt.Current_Directory>
/home/malgorzata/Desktop/rDOCK_IFD/test14/IFD

>  <Rbt.Executable>
rbdock ($Id: //depot/dev/client3/rdock/2013.1/src/exe/rbdock.cxx#4 $)

>  <Rbt.Library>
libRbt.so (2013.1, Build901 2013/11/27)

>  <Rbt.Parameter_File>
/home/malgorzata/Desktop/rDock_2013.1_src/data/scripts/hard_docking.prm

>  <Rbt.Receptor>
cavity.prm

>  <SCORE>
-13.52

>  <SCORE.INTER>
-19.2879

>  <SCORE.INTER.CONST>
1

>  <SCORE.INTER.POLAR>
-1.20684

>  <SCORE.INTER.REPUL>
0

>  <SCORE.INTER.ROT>
12

>  <SCORE.INTER.VDW>
-32.5846

>  <SCORE.INTER.norm>
-0.470436

>  <SCORE.INTRA>
5.50997

>  <SCORE.INTRA.DIHEDRAL>
10.6537

>  <SCORE.INTRA.DIHEDRAL.0>
12.9748

>  <SCORE.INTRA.POLAR>
0.058673

>  <SCORE.INTRA.POLAR.0>
-0.058673

>  <SCORE.INTRA.REPUL>
0

>  <SCORE.INTRA.REPUL.0>
0

>  <SCORE.INTRA.VDW>
-0.0163547

>  <SCORE.INTRA.VDW.0>
-4.98062

>  <SCORE.INTRA.norm>
0.13439

>  <SCORE.RESTR>
1.00193

>  <SCORE.RESTR.CAVITY>
1.00193

>  <SCORE.RESTR.norm>
0.0244373

>  <SCORE.SYSTEM>
-0.744056

>  <SCORE.SYSTEM.CONST>
0

>  <SCORE.SYSTEM.DIHEDRAL>
2.71816

>  <SCORE.SYSTEM.POLAR>
-0.156566

>  <SCORE.SYSTEM.REPUL>
0.0940285

>  <SCORE.SYSTEM.VDW>
-2.04096

>  <SCORE.SYSTEM.norm>
-0.0181477

>  <SCORE.heavy>
41

>  <SCORE.norm>
-0.329756

$$$$
570.pdb
  rDOCK(R)          3D
libRbt.so/2013.1/901 2013/11/27
 43 47  0  0  0  0  0  0  0  0999 V2000
   48.5753  -36.9231   19.4213 N   0  0  0  0  0  0
   49.3224  -37.8068   20.3918 C   0  0  0  0  0  0
   48.3844  -38.7524   21.2054 C   0  0  0  0  0  0
   47.7057  -39.8434   20.3695 C   0  0  0  0  0  0
   46.5170  -40.4578   20.8839 C   0  0  0  0  0  0
   48.2347  -40.2531   19.1012 C   0  0  0  0  0  0
   45.8591  -41.4639   20.1511 C   0  0  0  0  0  0
   47.5821  -41.2624   18.3577 C   0  0  0  0  0  0
   46.3643  -41.8923   18.8823 C   0  0  0  0  0  0
   45.6028  -42.9171   18.2434 O   0  0  0  0  0  0
   48.8455  -35.6023   18.8589 C   0  0  0  0  0  0
   49.5614  -34.5823   19.6334 C   0  0  0  0  0  0
   49.7843  -33.3068   18.9941 C   0  0  0  0  0  0
   49.3315  -33.0465   17.6794 C   0  0  0  0  0  0
   48.6455  -34.0363   16.9525 C   0  0  0  0  0  0
   48.4055  -35.2881   17.5229 C   0  0  0  0  0  0
   51.3411  -34.1147   21.7721 C   0  0  0  0  0  0
   52.2917  -33.3737   20.9731 C   0  0  0  0  0  0
   53.4366  -32.7779   21.5766 C   0  0  0  0  0  0
   53.6455  -32.9142   22.9806 C   0  0  0  0  0  0
   52.7152  -33.6432   23.7751 C   0  0  0  0  0  0
   51.5759  -34.2367   23.1777 C   0  0  0  0  0  0
   50.1237  -34.7405   21.1089 C   0  0  0  0  0  0
   49.5267  -35.5434   21.8552 O   0  0  0  0  0  0
   46.4394  -42.4612   13.7745 O   0  0  0  0  0  0
   46.7946  -41.3161   14.4785 C   0  0  0  0  0  0
   47.1924  -41.7762   15.7559 N   0  0  0  0  0  0
   47.0505  -43.1473   15.7585 C   0  0  0  0  0  0
   46.5591  -43.6308   14.4940 C   0  0  0  0  0  0
   46.2494  -45.0667   14.0521 C   0  0  0  0  0  0
   46.7714  -39.9885   14.0519 C   0  0  0  0  0  0
   47.0340  -38.8838   14.9434 C   0  0  0  0  0  0
   46.9926  -37.5513   14.4569 C   0  0  0  0  0  0
   46.6916  -37.3003   13.0929 C   0  0  0  0  0  0
   46.4322  -38.3777   12.2026 C   0  0  0  0  0  0
   46.4694  -39.7129   12.6766 C   0  0  0  0  0  0
   46.1972  -44.2087   17.9690 C   0  0  0  0  0  0
   47.4001  -43.9935   17.0305 C   0  0  0  0  0  0
   51.0021  -39.4596   20.3813 O   0  0  0  0  0  0
   50.6995  -38.3139   18.4941 O   0  0  0  0  0  0
   50.3992  -38.5950   19.7000 C   0  0  0  0  0  0
   47.7323  -37.3188   19.1018 H   0  0  0  0  0  0
   51.3785  -38.7895   18.0573 H   0  0  0  0  0  0
  1  2  1  0  0  0
  1 11  1  0  0  0
  1 42  1  0  0  0
  2  3  1  0  0  0
  2 41  1  0  0  0
  3  4  1  0  0  0
  4  5  2  0  0  0
  4  6  1  0  0  0
  5  7  1  0  0  0
  6  8  2  0  0  0
  7  9  2  0  0  0
  8  9  1  0  0  0
  9 10  1  0  0  0
 10 37  1  0  0  0
 11 12  2  0  0  0
 11 16  1  0  0  0
 12 13  1  0  0  0
 12 23  1  0  0  0
 13 14  2  0  0  0
 14 15  1  0  0  0
 15 16  2  0  0  0
 17 18  2  0  0  0
 17 22  1  0  0  0
 17 23  1  0  0  0
 18 19  1  0  0  0
 19 20  2  0  0  0
 20 21  1  0  0  0
 21 22  2  0  0  0
 23 24  2  0  0  0
 25 26  1  0  0  0
 25 29  1  0  0  0
 26 27  2  0  0  0
 26 31  1  0  0  0
 27 28  1  0  0  0
 28 29  2  0  0  0
 28 38  1  0  0  0
 29 30  1  0  0  0
 31 32  2  0  0  0
 31 36  1  0  0  0
 32 33  1  0  0  0
 33 34  2  0  0  0
 34 35  1  0  0  0
 35 36  2  0  0  0
 37 38  1  0  0  0
 39 41  2  0  0  0
 40 41  1  0  0  0
 40 43  1  0  0  0
M  END
>  <CHROM.0>
31.94907739,60.76581188,178.37504470,-179.34556124,137.81934641

>  <CHROM.1>
151.87051355,-32.41656931,67.91683548,-173.34664614,-159.14635987,-117.89987445
-60.65815460,148.38284252,-8.91674594,173.15586550,91.19863330,-51.56667268
179.03020078,48.52457006,-38.43184038,18.22175816,-0.12028918,1.12133393
2.34089602

>  <FORMUL>
      570    C34 H30 N2 O5

>  <HET>
 570  D 200      41

>  <HETNAM>
     570 2-(2-BENZOYL-PHENYLAMINO)-3-{4-[2-(5-METHYL-2-PHENYL-OX
   2 570 AZOL-4-YL)-ETHOXY]-PHENYL}-PROPIONIC ACID

>  <HETSYN>
     570 GI262570

>  <Name>
570.pdb

>  <RI>
0

>  <Rbt.Current_Directory>
/home/malgorzata/Desktop/rDOCK_IFD/test14/IFD

>  <Rbt.Executable>
rbdock ($Id: //depot/dev/client3/rdock/2013.1/src/exe/rbdock.cxx#4 $)

>  <Rbt.Library>
libRbt.so (2013.1, Build901 2013/11/27)

>  <Rbt.Parameter_File>
/home/malgorzata/Desktop/rDock_2013.1_src/data/scripts/hard_docking.prm

>  <Rbt.Receptor>
cavity.prm

>  <SCORE>
-10.2526

>  <SCORE.INTER>
-16.5768

>  <SCORE.INTER.CONST>
1

>  <SCORE.INTER.POLAR>
0

>  <SCORE.INTER.REPUL>
0

>  <SCORE.INTER.ROT>
12

>  <SCORE.INTER.VDW>
-33.9768

>  <SCORE.INTER.norm>
-0.404313

>  <SCORE.INTRA>
5.29157

>  <SCORE.INTRA.DIHEDRAL>
5.64243

>  <SCORE.INTRA.DIHEDRAL.0>
12.9748

>  <SCORE.INTRA.POLAR>
0.058673

>  <SCORE.INTRA.POLAR.0>
-0.058673

>  <SCORE.INTRA.REPUL>
0

>  <SCORE.INTRA.REPUL.0>
0

>  <SCORE.INTRA.VDW>
2.27087

>  <SCORE.INTRA.VDW.0>
-4.98062

>  <SCORE.INTRA.norm>
0.129063

>  <SCORE.RESTR>
0.0399036

>  <SCORE.RESTR.CAVITY>
0.0399036

>  <SCORE.RESTR.norm>
0.000973259

>  <SCORE.SYSTEM>
0.992719

>  <SCORE.SYSTEM.CONST>
0

>  <SCORE.SYSTEM.DIHEDRAL>
2.52385

>  <SCORE.SYSTEM.POLAR>
-0.785754

>  <SCORE.SYSTEM.REPUL>
0.71158

>  <SCORE.SYSTEM.VDW>
-1.15554

>  <SCORE.SYSTEM.norm>
0.0242127

>  <SCORE.heavy>
41

>  <SCORE.norm>
-0.250065

$$$$
570.pdb
  rDOCK(R)          3D
libRbt.so/2013.1/901 2013/11/27
 43 47  0  0  0  0  0  0  0  0999 V2000
   47.6533  -38.7337   19.5523 N   0  0  0  0  0  0
   46.8006  -39.9431   19.8542 C   0  0  0  0  0  0
   47.2592  -41.2224   19.0868 C   0  0  0  0  0  0
   47.7226  -40.9658   17.6484 C   0  0  0  0  0  0
   48.6936  -41.8512   17.0753 C   0  0  0  0  0  0
   47.2084  -39.8697   16.8800 C   0  0  0  0  0  0
   49.1486  -41.6551   15.7575 C   0  0  0  0  0  0
   47.6587  -39.6638   15.5562 C   0  0  0  0  0  0
   48.6524  -40.5697   14.9674 C   0  0  0  0  0  0
   49.1937  -40.4851   13.6489 O   0  0  0  0  0  0
   48.8768  -38.1990   20.1446 C   0  0  0  0  0  0
   49.2854  -36.8092   19.9118 C   0  0  0  0  0  0
   50.5088  -36.3688   20.5400 C   0  0  0  0  0  0
   51.2843  -37.2370   21.3438 C   0  0  0  0  0  0
   50.8775  -38.5669   21.5548 C   0  0  0  0  0  0
   49.7012  -39.0432   20.9723 C   0  0  0  0  0  0
   47.3493  -35.8979   18.0730 C   0  0  0  0  0  0
   47.5500  -35.6600   16.6608 C   0  0  0  0  0  0
   46.4732  -35.8124   15.7403 C   0  0  0  0  0  0
   45.1873  -36.2031   16.2170 C   0  0  0  0  0  0
   44.9802  -36.4384   17.6062 C   0  0  0  0  0  0
   46.0490  -36.2876   18.5238 C   0  0  0  0  0  0
   48.5126  -35.7325   19.0388 C   0  0  0  0  0  0
   48.9378  -34.5600   19.0861 O   0  0  0  0  0  0
   49.0242  -44.4606    9.4546 O   0  0  0  0  0  0
   47.7250  -44.0180    9.6764 C   0  0  0  0  0  0
   47.8627  -42.8387   10.4459 N   0  0  0  0  0  0
   49.2111  -42.6405   10.6516 C   0  0  0  0  0  0
   49.9988  -43.6735   10.0297 C   0  0  0  0  0  0
   51.5214  -43.8580   10.0050 C   0  0  0  0  0  0
   46.5255  -44.5893    9.2525 C   0  0  0  0  0  0
   45.4325  -43.8009    8.7348 C   0  0  0  0  0  0
   44.2315  -44.4341    8.3217 C   0  0  0  0  0  0
   44.1004  -45.8440    8.4174 C   0  0  0  0  0  0
   45.1685  -46.6338    8.9236 C   0  0  0  0  0  0
   46.3725  -46.0132    9.3406 C   0  0  0  0  0  0
   49.7307  -41.6633   13.0003 C   0  0  0  0  0  0
   49.7308  -41.4154   11.4796 C   0  0  0  0  0  0
   47.4009  -39.4604   22.0813 O   0  0  0  0  0  0
   46.0542  -41.2051   21.7528 O   0  0  0  0  0  0
   46.7276  -40.2088   21.3319 C   0  0  0  0  0  0
   47.3147  -38.1945   18.8014 H   0  0  0  0  0  0
   45.5421  -41.7115   21.1534 H   0  0  0  0  0  0
  1  2  1  0  0  0
  1 11  1  0  0  0
  1 42  1  0  0  0
  2  3  1  0  0  0
  2 41  1  0  0  0
  3  4  1  0  0  0
  4  5  2  0  0  0
  4  6  1  0  0  0
  5  7  1  0  0  0
  6  8  2  0  0  0
  7  9  2  0  0  0
  8  9  1  0  0  0
  9 10  1  0  0  0
 10 37  1  0  0  0
 11 12  2  0  0  0
 11 16  1  0  0  0
 12 13  1  0  0  0
 12 23  1  0  0  0
 13 14  2  0  0  0
 14 15  1  0  0  0
 15 16  2  0  0  0
 17 18  2  0  0  0
 17 22  1  0  0  0
 17 23  1  0  0  0
 18 19  1  0  0  0
 19 20  2  0  0  0
 20 21  1  0  0  0
 21 22  2  0  0  0
 23 24  2  0  0  0
 25 26  1  0  0  0
 25 29  1  0  0  0
 26 27  2  0  0  0
 26 31  1  0  0  0
 27 28  1  0  0  0
 28 29  2  0  0  0
 28 38  1  0  0  0
 29 30  1  0  0  0
 31 32  2  0  0  0
 31 36  1  0  0  0
 32 33  1  0  0  0
 33 34  2  0  0  0
 34 35  1  0  0  0
 35 36  2  0  0  0
 37 38  1  0  0  0
 39 41  2  0  0  0
 40 41  1  0  0  0
 40 43  1  0  0  0
M  END
>  <CHROM.0>
-146.78360618,-63.55258510,-54.58886630,-178.42569742,5.38347337

>  <CHROM.1>
-88.68720411,-162.17985790,-38.64307512,-2.89087006,151.70531248,24.26963550
158.65754157,-11.45723005,-113.13139104,-137.90362701,84.17233570,-135.87268088
-6.13177799,47.87611398,-40.36580871,15.60273574,-1.26316190,1.30979029,-2.43784452

>  <FORMUL>
      570    C34 H30 N2 O5

>  <HET>
 570  D 200      41

>  <HETNAM>
     570 2-(2-BENZOYL-PHENYLAMINO)-3-{4-[2-(5-METHYL-2-PHENYL-OX
   2 570 AZOL-4-YL)-ETHOXY]-PHENYL}-PROPIONIC ACID

>  <HETSYN>
     570 GI262570

>  <Name>
570.pdb

>  <RI>
0

>  <Rbt.Current_Directory>
/home/malgorzata/Desktop/rDOCK_IFD/test14/IFD

>  <Rbt.Executable>
rbdock ($Id: //depot/dev/client3/rdock/2013.1/src/exe/rbdock.cxx#4 $)

>  <Rbt.Library>
libRbt.so (2013.1, Build901 2013/11/27)

>  <Rbt.Parameter_File>
/home/malgorzata/Desktop/rDock_2013.1_src/data/scripts/hard_docking.prm

>  <Rbt.Receptor>
cavity.prm

>  <SCORE>
38.6842

>  <SCORE.INTER>
-8.23949

>  <SCORE.INTER.CONST>
1

>  <SCORE.INTER.POLAR>
0

>  <SCORE.INTER.REPUL>
0

>  <SCORE.INTER.ROT>
12

>  <SCORE.INTER.VDW>
-25.6395

>  <SCORE.INTER.norm>
-0.200963

>  <SCORE.INTRA>
13.4212

>  <SCORE.INTRA.DIHEDRAL>
18.9679

>  <SCORE.INTRA.DIHEDRAL.0>
12.9748

>  <SCORE.INTRA.POLAR>
0.058673

>  <SCORE.INTRA.POLAR.0>
-0.058673

>  <SCORE.INTRA.REPUL>
0

>  <SCORE.INTRA.REPUL.0>
0

>  <SCORE.INTRA.VDW>
3.73775

>  <SCORE.INTRA.VDW.0>
-4.98062

>  <SCORE.INTRA.norm>
0.327347

>  <SCORE.RESTR>
33.6687

>  <SCORE.RESTR.CAVITY>
33.6687

>  <SCORE.RESTR.norm>
0.821188

>  <SCORE.SYSTEM>
-0.166171

>  <SCORE.SYSTEM.CONST>
0

>  <SCORE.SYSTEM.DIHEDRAL>
0.687893

>  <SCORE.SYSTEM.POLAR>
-0.146613

>  <SCORE.SYSTEM.REPUL>
0.106871

>  <SCORE.SYSTEM.VDW>
-0.545987

>  <SCORE.SYSTEM.norm>
-0.00405294

>  <SCORE.heavy>
41

>  <SCORE.norm>
0.943518

$$$$
570.pdb
  rDOCK(R)          3D
libRbt.so/2013.1/901 2013/11/27
 43 47  0  0  0  0  0  0  0  0999 V2000
   47.8078  -36.8032   16.6616 N   0  0  0  0  0  0
   48.5937  -35.6499   17.2388 C   0  0  0  0  0  0
   49.9402  -36.0928   17.8921 C   0  0  0  0  0  0
   50.3401  -35.2821   19.1300 C   0  0  0  0  0  0
   49.4264  -35.2241   20.2331 C   0  0  0  0  0  0
   51.5945  -34.5907   19.1994 C   0  0  0  0  0  0
   49.7509  -34.4922   21.3911 C   0  0  0  0  0  0
   51.9300  -33.8529   20.3573 C   0  0  0  0  0  0
   50.9959  -33.7928   21.4882 C   0  0  0  0  0  0
   51.2015  -33.0922   22.7151 O   0  0  0  0  0  0
   47.4203  -37.1686   15.3015 C   0  0  0  0  0  0
   47.0359  -38.5449   14.9683 C   0  0  0  0  0  0
   46.6662  -38.8115   13.5981 C   0  0  0  0  0  0
   46.6753  -37.7937   12.6156 C   0  0  0  0  0  0
   47.0479  -36.4799   12.9533 C   0  0  0  0  0  0
   47.4123  -36.1676   14.2646 C   0  0  0  0  0  0
   46.7591  -41.2568   15.6955 C   0  0  0  0  0  0
   46.8362  -41.7566   14.3408 C   0  0  0  0  0  0
   46.6351  -43.1402   14.0665 C   0  0  0  0  0  0
   46.3557  -44.0387   15.1381 C   0  0  0  0  0  0
   46.2768  -43.5550   16.4753 C   0  0  0  0  0  0
   46.4763  -42.1797   16.7509 C   0  0  0  0  0  0
   46.9799  -39.7767   15.9673 C   0  0  0  0  0  0
   47.0730  -39.5181   17.1848 O   0  0  0  0  0  0
   53.3383  -36.7232   21.0300 O   0  0  0  0  0  0
   52.0264  -37.1399   21.2258 C   0  0  0  0  0  0
   51.5739  -36.4176   22.3550 N   0  0  0  0  0  0
   52.6191  -35.6251   22.7785 C   0  0  0  0  0  0
   53.7839  -35.7977   21.9492 C   0  0  0  0  0  0
   55.1617  -35.1311   22.0510 C   0  0  0  0  0  0
   51.2883  -38.0684   20.4922 C   0  0  0  0  0  0
   51.7647  -38.6293   19.2503 C   0  0  0  0  0  0
   50.9699  -39.5676   18.5419 C   0  0  0  0  0  0
   49.7037  -39.9566   19.0513 C   0  0  0  0  0  0
   49.2217  -39.4142   20.2737 C   0  0  0  0  0  0
   50.0055  -38.4754   20.9899 C   0  0  0  0  0  0
   51.2046  -33.8061   23.9750 C   0  0  0  0  0  0
   52.4682  -34.6863   24.0244 C   0  0  0  0  0  0
   49.7546  -34.7709   15.3859 O   0  0  0  0  0  0
   48.1428  -33.5058   16.2619 O   0  0  0  0  0  0
   48.8299  -34.5776   16.2122 C   0  0  0  0  0  0
   47.4915  -37.4401   17.3425 H   0  0  0  0  0  0
   48.2873  -32.8270   15.6323 H   0  0  0  0  0  0
  1  2  1  0  0  0
  1 11  1  0  0  0
  1 42  1  0  0  0
  2  3  1  0  0  0
  2 41  1  0  0  0
  3  4  1  0  0  0
  4  5  2  0  0  0
  4  6  1  0  0  0
  5  7  1  0  0  0
  6  8  2  0  0  0
  7  9  2  0  0  0
  8  9  1  0  0  0
  9 10  1  0  0  0
 10 37  1  0  0  0
 11 12  2  0  0  0
 11 16  1  0  0  0
 12 13  1  0  0  0
 12 23  1  0  0  0
 13 14  2  0  0  0
 14 15  1  0  0  0
 15 16  2  0  0  0
 17 18  2  0  0  0
 17 22  1  0  0  0
 17 23  1  0  0  0
 18 19  1  0  0  0
 19 20  2  0  0  0
 20 21  1  0  0  0
 21 22  2  0  0  0
 23 24  2  0  0  0
 25 26  1  0  0  0
 25 29  1  0  0  0
 26 27  2  0  0  0
 26 31  1  0  0  0
 27 28  1  0  0  0
 28 29  2  0  0  0
 28 38  1  0  0  0
 29 30  1  0  0  0
 31 32  2  0  0  0
 31 36  1  0  0  0
 32 33  1  0  0  0
 33 34  2  0  0  0
 34 35  1  0  0  0
 35 36  2  0  0  0
 37 38  1  0  0  0
 39 41  2  0  0  0
 40 41  1  0  0  0
 40 43  1  0  0  0
M  END
>  <CHROM.0>
-139.23702900,-58.88612632,73.03314161,15.20641269,5.61501949

>  <CHROM.1>
-114.60187158,159.89267490,-145.00601056,-79.40466220,56.99194259,59.70072378
69.11376754,-171.80010917,12.86130667,-8.66468220,-49.86073325,-53.48883859
179.40020408,49.51960628,-37.27449395,18.35844631,2.81505375,0.99800219,2.87854284

>  <FORMUL>
      570    C34 H30 N2 O5

>  <HET>
 570  D 200      41

>  <HETNAM>
     570 2-(2-BENZOYL-PHENYLAMINO)-3-{4-[2-(5-METHYL-2-PHENYL-OX
   2 570 AZOL-4-YL)-ETHOXY]-PHENYL}-PROPIONIC ACID

>  <HETSYN>
     570 GI262570

>  <Name>
570.pdb

>  <RI>
0

>  <Rbt.Current_Directory>
/home/malgorzata/Desktop/rDOCK_IFD/test14/IFD

>  <Rbt.Executable>
rbdock ($Id: //depot/dev/client3/rdock/2013.1/src/exe/rbdock.cxx#4 $)

>  <Rbt.Library>
libRbt.so (2013.1, Build901 2013/11/27)

>  <Rbt.Parameter_File>
/home/malgorzata/Desktop/rDock_2013.1_src/data/scripts/hard_docking.prm

>  <Rbt.Receptor>
cavity.prm

>  <SCORE>
-17.091

>  <SCORE.INTER>
-17.3398

>  <SCORE.INTER.CONST>
1

>  <SCORE.INTER.POLAR>
-0.979796

>  <SCORE.INTER.REPUL>
0

>  <SCORE.INTER.ROT>
12

>  <SCORE.INTER.VDW>
-31.4085

>  <SCORE.INTER.norm>
-0.422922

>  <SCORE.INTRA>
-1.20594

>  <SCORE.INTRA.DIHEDRAL>
2.83459

>  <SCORE.INTRA.DIHEDRAL.0>
12.9748

>  <SCORE.INTRA.POLAR>
-0.0185804

>  <SCORE.INTRA.POLAR.0>
-0.058673

>  <SCORE.INTRA.REPUL>
0

>  <SCORE.INTRA.REPUL.0>
0

>  <SCORE.INTRA.VDW>
-2.56006

>  <SCORE.INTRA.VDW.0>
-4.98062

>  <SCORE.INTRA.norm>
-0.0294132

>  <SCORE.RESTR>
0

>  <SCORE.RESTR.CAVITY>
0

>  <SCORE.RESTR.norm>
0

>  <SCORE.SYSTEM>
1.45477

>  <SCORE.SYSTEM.CONST>
0

>  <SCORE.SYSTEM.DIHEDRAL>
1.61689

>  <SCORE.SYSTEM.POLAR>
-0.174297

>  <SCORE.SYSTEM.REPUL>
0.0716815

>  <SCORE.SYSTEM.VDW>
0.880531

>  <SCORE.SYSTEM.norm>
0.0354823

>  <SCORE.heavy>
41

>  <SCORE.norm>
-0.416853

$$$$
570.pdb
  rDOCK(R)          3D
libRbt.so/2013.1/901 2013/11/27
 43 47  0  0  0  0  0  0  0  0999 V2000
   50.5684  -36.3794   20.1289 N   0  0  0  0  0  0
   50.0688  -37.7020   20.6601 C   0  0  0  0  0  0
   48.5362  -37.7036   20.9550 C   0  0  0  0  0  0
   47.7785  -38.8965   20.3612 C   0  0  0  0  0  0
   47.4886  -40.0135   21.2117 C   0  0  0  0  0  0
   47.3630  -38.9119   18.9888 C   0  0  0  0  0  0
   46.7946  -41.1311   20.7104 C   0  0  0  0  0  0
   46.6659  -40.0291   18.4755 C   0  0  0  0  0  0
   46.3675  -41.1736   19.3450 C   0  0  0  0  0  0
   45.6731  -42.3621   18.9657 O   0  0  0  0  0  0
   50.7260  -35.8375   18.7817 C   0  0  0  0  0  0
   51.8907  -35.0186   18.4271 C   0  0  0  0  0  0
   51.9620  -34.5281   17.0708 C   0  0  0  0  0  0
   50.9537  -34.8197   16.1223 C   0  0  0  0  0  0
   49.8434  -35.6056   16.4808 C   0  0  0  0  0  0
   49.7265  -36.1069   17.7788 C   0  0  0  0  0  0
   53.3912  -35.0414   20.8162 C   0  0  0  0  0  0
   54.0240  -34.1083   21.7218 C   0  0  0  0  0  0
   54.3118  -34.4848   23.0655 C   0  0  0  0  0  0
   53.9721  -35.7931   23.5199 C   0  0  0  0  0  0
   53.3497  -36.7190   22.6346 C   0  0  0  0  0  0
   53.0625  -36.3473   21.2980 C   0  0  0  0  0  0
   53.0899  -34.6188   19.3865 C   0  0  0  0  0  0
   53.9053  -33.7813   18.9487 O   0  0  0  0  0  0
   47.1428  -44.8096   15.0643 O   0  0  0  0  0  0
   46.7897  -43.4667   15.1351 C   0  0  0  0  0  0
   46.2002  -43.3063   16.4112 N   0  0  0  0  0  0
   46.2202  -44.5389   17.0280 C   0  0  0  0  0  0
   46.8182  -45.5425   16.1857 C   0  0  0  0  0  0
   47.0425  -47.0358   16.4557 C   0  0  0  0  0  0
   46.9596  -42.4691   14.1754 C   0  0  0  0  0  0
   47.5507  -42.7292   12.8843 C   0  0  0  0  0  0
   47.7041  -41.6752   11.9464 C   0  0  0  0  0  0
   47.2782  -40.3619   12.2752 C   0  0  0  0  0  0
   46.6931  -40.0906   13.5420 C   0  0  0  0  0  0
   46.5356  -41.1344   14.4876 C   0  0  0  0  0  0
   46.1013  -43.6521   19.4652 C   0  0  0  0  0  0
   45.6349  -44.7310   18.4691 C   0  0  0  0  0  0
   50.6908  -38.5450   18.5492 O   0  0  0  0  0  0
   50.4010  -40.0298   20.1853 O   0  0  0  0  0  0
   50.4335  -38.8355   19.7428 C   0  0  0  0  0  0
   50.8448  -35.7534   20.8367 H   0  0  0  0  0  0
   50.1173  -40.1969   21.0626 H   0  0  0  0  0  0
  1  2  1  0  0  0
  1 11  1  0  0  0
  1 42  1  0  0  0
  2  3  1  0  0  0
  2 41  1  0  0  0
  3  4  1  0  0  0
  4  5  2  0  0  0
  4  6  1  0  0  0
  5  7  1  0  0  0
  6  8  2  0  0  0
  7  9  2  0  0  0
  8  9  1  0  0  0
  9 10  1  0  0  0
 10 37  1  0  0  0
 11 12  2  0  0  0
 11 16  1  0  0  0
 12 13  1  0  0  0
 12 23  1  0  0  0
 13 14  2  0  0  0
 14 15  1  0  0  0
 15 16  2  0  0  0
 17 18  2  0  0  0
 17 22  1  0  0  0
 17 23  1  0  0  0
 18 19  1  0  0  0
 19 20  2  0  0  0
 20 21  1  0  0  0
 21 22  2  0  0  0
 23 24  2  0  0  0
 25 26  1  0  0  0
 25 29  1  0  0  0
 26 27  2  0  0  0
 26 31  1  0  0  0
 27 28  1  0  0  0
 28 29  2  0  0  0
 28 38  1  0  0  0
 29 30  1  0  0  0
 31 32  2  0  0  0
 31 36  1  0  0  0
 32 33  1  0  0  0
 33 34  2  0  0  0
 34 35  1  0  0  0
 35 36  2  0  0  0
 37 38  1  0  0  0
 39 41  2  0  0  0
 40 41  1  0  0  0
 40 43  1  0  0  0
M  END
>  <CHROM.0>
-153.62155101,-179.63169723,-175.30740571,1.17055084,137.90206178

>  <CHROM.1>
-91.02447546,-140.70808539,130.74168459,-21.39677751,98.23328142,-39.25846388
-155.24667396,5.11294290,-146.33375720,0.96260116,-47.01018847,59.79134715
2.56004799,49.20368457,-39.32206143,18.25673953,0.24963394,0.97822829,1.78852347

>  <FORMUL>
      570    C34 H30 N2 O5

>  <HET>
 570  D 200      41

>  <HETNAM>
     570 2-(2-BENZOYL-PHENYLAMINO)-3-{4-[2-(5-METHYL-2-PHENYL-OX
   2 570 AZOL-4-YL)-ETHOXY]-PHENYL}-PROPIONIC ACID

>  <HETSYN>
     570 GI262570

>  <Name>
570.pdb

>  <RI>
0

>  <Rbt.Current_Directory>
/home/malgorzata/Desktop/rDOCK_IFD/test14/IFD

>  <Rbt.Executable>
rbdock ($Id: //depot/dev/client3/rdock/2013.1/src/exe/rbdock.cxx#4 $)

>  <Rbt.Library>
libRbt.so (2013.1, Build901 2013/11/27)

>  <Rbt.Parameter_File>
/home/malgorzata/Desktop/rDock_2013.1_src/data/scripts/hard_docking.prm

>  <Rbt.Receptor>
cavity.prm

>  <SCORE>
-8.92686

>  <SCORE.INTER>
-14.4029

>  <SCORE.INTER.CONST>
1

>  <SCORE.INTER.POLAR>
-0.872564

>  <SCORE.INTER.REPUL>
0.183111

>  <SCORE.INTER.ROT>
12

>  <SCORE.INTER.VDW>
-29.7517

>  <SCORE.INTER.norm>
-0.351289

>  <SCORE.INTRA>
7.1713

>  <SCORE.INTRA.DIHEDRAL>
9.84217

>  <SCORE.INTRA.DIHEDRAL.0>
12.9748

>  <SCORE.INTRA.POLAR>
0.058673

>  <SCORE.INTRA.POLAR.0>
-0.058673

>  <SCORE.INTRA.REPUL>
0

>  <SCORE.INTRA.REPUL.0>
0

>  <SCORE.INTRA.VDW>
2.05073

>  <SCORE.INTRA.VDW.0>
-4.98062

>  <SCORE.INTRA.norm>
0.17491

>  <SCORE.RESTR>
0

>  <SCORE.RESTR.CAVITY>
0

>  <SCORE.RESTR.norm>
0

>  <SCORE.SYSTEM>
-1.69531

>  <SCORE.SYSTEM.CONST>
0

>  <SCORE.SYSTEM.DIHEDRAL>
2.6742

>  <SCORE.SYSTEM.POLAR>
-0.477653

>  <SCORE.SYSTEM.REPUL>
0.143211

>  <SCORE.SYSTEM.VDW>
-2.12444

>  <SCORE.SYSTEM.norm>
-0.0413489

>  <SCORE.heavy>
41

>  <SCORE.norm>
-0.217728

$$$$
570.pdb
  rDOCK(R)          3D
libRbt.so/2013.1/901 2013/11/27
 43 47  0  0  0  0  0  0  0  0999 V2000
   50.8809  -36.4679   20.8633 N   0  0  0  0  0  0
   50.3230  -37.8702   20.8066 C   0  0  0  0  0  0
   48.7631  -37.9101   20.8364 C   0  0  0  0  0  0
   48.1598  -39.2938   20.5700 C   0  0  0  0  0  0
   47.2647  -39.8477   21.5432 C   0  0  0  0  0  0
   48.4738  -40.0315   19.3811 C   0  0  0  0  0  0
   46.6862  -41.1152   21.3412 C   0  0  0  0  0  0
   47.8985  -41.3049   19.1687 C   0  0  0  0  0  0
   46.9812  -41.8735   20.1637 C   0  0  0  0  0  0
   46.3279  -43.1404   20.0813 O   0  0  0  0  0  0
   50.4610  -35.1995   20.2732 C   0  0  0  0  0  0
   50.9423  -33.9205   20.8073 C   0  0  0  0  0  0
   50.4747  -32.7184   20.1580 C   0  0  0  0  0  0
   49.5888  -32.7668   19.0561 C   0  0  0  0  0  0
   49.1368  -34.0024   18.5583 C   0  0  0  0  0  0
   49.5601  -35.1953   19.1481 C   0  0  0  0  0  0
   53.1112  -34.5682   22.4913 C   0  0  0  0  0  0
   54.0458  -35.0884   21.5181 C   0  0  0  0  0  0
   55.1560  -35.8803   21.9310 C   0  0  0  0  0  0
   55.3460  -36.1614   23.3161 C   0  0  0  0  0  0
   54.4299  -35.6542   24.2814 C   0  0  0  0  0  0
   53.3251  -34.8666   23.8737 C   0  0  0  0  0  0
   51.9343  -33.7224   22.0300 C   0  0  0  0  0  0
   51.7066  -32.7576   22.7884 O   0  0  0  0  0  0
   46.7509  -44.9337   14.5882 O   0  0  0  0  0  0
   46.9017  -43.6328   14.1212 C   0  0  0  0  0  0
   46.6184  -42.8057   15.2336 N   0  0  0  0  0  0
   46.3088  -43.6347   16.2905 C   0  0  0  0  0  0
   46.3777  -45.0226   15.9121 C   0  0  0  0  0  0
   46.1106  -46.2776   16.7529 C   0  0  0  0  0  0
   47.2499  -43.2011   12.8416 C   0  0  0  0  0  0
   47.3371  -44.1023   11.7172 C   0  0  0  0  0  0
   47.7008  -43.6097   10.4370 C   0  0  0  0  0  0
   47.9811  -42.2300   10.2581 C   0  0  0  0  0  0
   47.8980  -41.3301   11.3553 C   0  0  0  0  0  0
   47.5370  -41.8100   12.6391 C   0  0  0  0  0  0
   46.4060  -43.9276   18.8684 C   0  0  0  0  0  0
   45.9339  -43.0483   17.6947 C   0  0  0  0  0  0
   50.6328  -38.1285   18.4848 O   0  0  0  0  0  0
   51.4245  -39.7466   19.7965 O   0  0  0  0  0  0
   50.8501  -38.6236   19.6175 C   0  0  0  0  0  0
   51.6957  -36.3934   21.4108 H   0  0  0  0  0  0
   51.6145  -40.2980   19.0630 H   0  0  0  0  0  0
  1  2  1  0  0  0
  1 11  1  0  0  0
  1 42  1  0  0  0
  2  3  1  0  0  0
  2 41  1  0  0  0
  3  4  1  0  0  0
  4  5  2  0  0  0
  4  6  1  0  0  0
  5  7  1  0  0  0
  6  8  2  0  0  0
  7  9  2  0  0  0
  8  9  1  0  0  0
  9 10  1  0  0  0
 10 37  1  0  0  0
 11 12  2  0  0  0
 11 16  1  0  0  0
 12 13  1  0  0  0
 12 23  1  0  0  0
 13 14  2  0  0  0
 14 15  1  0  0  0
 15 16  2  0  0  0
 17 18  2  0  0  0
 17 22  1  0  0  0
 17 23  1  0  0  0
 18 19  1  0  0  0
 19 20  2  0  0  0
 20 21  1  0  0  0
 21 22  2  0  0  0
 23 24  2  0  0  0
 25 26  1  0  0  0
 25 29  1  0  0  0
 26 27  2  0  0  0
 26 31  1  0  0  0
 27 28  1  0  0  0
 28 29  2  0  0  0
 28 38  1  0  0  0
 29 30  1  0  0  0
 31 32  2  0  0  0
 31 36  1  0  0  0
 32 33  1  0  0  0
 33 34  2  0  0  0
 34 35  1  0  0  0
 35 36  2  0  0  0
 37 38  1  0  0  0
 39 41  2  0  0  0
 40 41  1  0  0  0
 40 43  1  0  0  0
M  END
>  <CHROM.0>
-149.21328230,-56.97954143,-178.98250762,-10.31407451,-176.56403703

>  <CHROM.1>
-38.27236335,161.22380544,171.29482297,-58.33309189,124.20110224,172.09737591
-54.17002744,34.36196127,43.36060954,8.76342121,-146.28217360,165.14634185
168.68449876,49.28262719,-39.25526581,18.59022998,-0.54338618,-1.05757679
-1.47329781

>  <FORMUL>
      570    C34 H30 N2 O5

>  <HET>
 570  D 200      41

>  <HETNAM>
     570 2-(2-BENZOYL-PHENYLAMINO)-3-{4-[2-(5-METHYL-2-PHENYL-OX
   2 570 AZOL-4-YL)-ETHOXY]-PHENYL}-PROPIONIC ACID

>  <HETSYN>
     570 GI262570

>  <Name>
570.pdb

>  <RI>
0

>  <Rbt.Current_Directory>
/home/malgorzata/Desktop/rDOCK_IFD/test14/IFD

>  <Rbt.Executable>
rbdock ($Id: //depot/dev/client3/rdock/2013.1/src/exe/rbdock.cxx#4 $)

>  <Rbt.Library>
libRbt.so (2013.1, Build901 2013/11/27)

>  <Rbt.Parameter_File>
/home/malgorzata/Desktop/rDock_2013.1_src/data/scripts/hard_docking.prm

>  <Rbt.Receptor>
cavity.prm

>  <SCORE>
-5.17603

>  <SCORE.INTER>
-13.5883

>  <SCORE.INTER.CONST>
1

>  <SCORE.INTER.POLAR>
-0.622944

>  <SCORE.INTER.REPUL>
0.180636

>  <SCORE.INTER.ROT>
12

>  <SCORE.INTER.VDW>
-29.7735

>  <SCORE.INTER.norm>
-0.331422

>  <SCORE.INTRA>
6.83072

>  <SCORE.INTRA.DIHEDRAL>
7.91244

>  <SCORE.INTRA.DIHEDRAL.0>
12.9748

>  <SCORE.INTRA.POLAR>
0.058673

>  <SCORE.INTRA.POLAR.0>
-0.058673

>  <SCORE.INTRA.REPUL>
0

>  <SCORE.INTRA.REPUL.0>
0

>  <SCORE.INTRA.VDW>
2.67501

>  <SCORE.INTRA.VDW.0>
-4.98062

>  <SCORE.INTRA.norm>
0.166603

>  <SCORE.RESTR>
2.70725

>  <SCORE.RESTR.CAVITY>
2.70725

>  <SCORE.RESTR.norm>
0.0660305

>  <SCORE.SYSTEM>
-1.12567

>  <SCORE.SYSTEM.CONST>
0

>  <SCORE.SYSTEM.DIHEDRAL>
0.660179

>  <SCORE.SYSTEM.POLAR>
-0.137129

>  <SCORE.SYSTEM.REPUL>
0.119316

>  <SCORE.SYSTEM.VDW>
-1.5861

>  <SCORE.SYSTEM.norm>
-0.0274554

>  <SCORE.heavy>
41

>  <SCORE.norm>
-0.126245

$$$$
570.pdb
  rDOCK(R)          3D
libRbt.so/2013.1/901 2013/11/27
 43 47  0  0  0  0  0  0  0  0999 V2000
   46.9529  -42.9767   14.8584 N   0  0  0  0  0  0
   47.2570  -41.6010   15.4022 C   0  0  0  0  0  0
   48.7691  -41.3917   15.7273 C   0  0  0  0  0  0
   49.0383  -40.6934   17.0650 C   0  0  0  0  0  0
   50.2371  -39.9193   17.2024 C   0  0  0  0  0  0
   48.1240  -40.8024   18.1642 C   0  0  0  0  0  0
   50.5262  -39.2599   18.4122 C   0  0  0  0  0  0
   48.4049  -40.1445   19.3832 C   0  0  0  0  0  0
   49.6315  -39.3508   19.5256 C   0  0  0  0  0  0
   50.0416  -38.6344   20.6905 O   0  0  0  0  0  0
   46.0277  -44.0313   15.2651 C   0  0  0  0  0  0
   46.3880  -44.9905   16.3153 C   0  0  0  0  0  0
   45.4086  -45.9969   16.6517 C   0  0  0  0  0  0
   44.1557  -46.0608   15.9978 C   0  0  0  0  0  0
   43.8281  -45.1333   14.9922 C   0  0  0  0  0  0
   44.7383  -44.1382   14.6299 C   0  0  0  0  0  0
   48.3860  -46.1570   17.9300 C   0  0  0  0  0  0
   49.4563  -45.8616   18.8565 C   0  0  0  0  0  0
   50.0621  -46.9016   19.6189 C   0  0  0  0  0  0
   49.6080  -48.2448   19.4662 C   0  0  0  0  0  0
   48.5553  -48.5451   18.5553 C   0  0  0  0  0  0
   47.9511  -47.5129   17.7958 C   0  0  0  0  0  0
   47.7506  -45.0318   17.1277 C   0  0  0  0  0  0
   48.4041  -43.9699   17.1843 O   0  0  0  0  0  0
   53.2315  -35.7705   19.2124 O   0  0  0  0  0  0
   53.3739  -35.8964   20.5897 C   0  0  0  0  0  0
   52.0638  -36.1116   21.0785 N   0  0  0  0  0  0
   51.2150  -36.0956   19.9925 C   0  0  0  0  0  0
   51.9321  -35.8716   18.7637 C   0  0  0  0  0  0
   51.4007  -35.7722   17.3281 C   0  0  0  0  0  0
   54.5374  -35.8261   21.3555 C   0  0  0  0  0  0
   54.5281  -35.9635   22.7925 C   0  0  0  0  0  0
   55.7417  -35.8790   23.5233 C   0  0  0  0  0  0
   56.9680  -35.6576   22.8441 C   0  0  0  0  0  0
   56.9933  -35.5218   21.4293 C   0  0  0  0  0  0
   55.7879  -35.6031   20.6883 C   0  0  0  0  0  0
   49.3149  -37.4582   21.1211 C   0  0  0  0  0  0
   49.6713  -36.2993   20.1703 C   0  0  0  0  0  0
   46.7746  -40.7711   13.2500 O   0  0  0  0  0  0
   46.4117  -39.3984   14.9674 O   0  0  0  0  0  0
   46.7588  -40.5234   14.4802 C   0  0  0  0  0  0
   47.4889  -43.2111   14.0666 H   0  0  0  0  0  0
   46.4371  -39.2612   15.8940 H   0  0  0  0  0  0
  1  2  1  0  0  0
  1 11  1  0  0  0
  1 42  1  0  0  0
  2  3  1  0  0  0
  2 41  1  0  0  0
  3  4  1  0  0  0
  4  5  2  0  0  0
  4  6  1  0  0  0
  5  7  1  0  0  0
  6  8  2  0  0  0
  7  9  2  0  0  0
  8  9  1  0  0  0
  9 10  1  0  0  0
 10 37  1  0  0  0
 11 12  2  0  0  0
 11 16  1  0  0  0
 12 13  1  0  0  0
 12 23  1  0  0  0
 13 14  2  0  0  0
 14 15  1  0  0  0
 15 16  2  0  0  0
 17 18  2  0  0  0
 17 22  1  0  0  0
 17 23  1  0  0  0
 18 19  1  0  0  0
 19 20  2  0  0  0
 20 21  1  0  0  0
 21 22  2  0  0  0
 23 24  2  0  0  0
 25 26  1  0  0  0
 25 29  1  0  0  0
 26 27  2  0  0  0
 26 31  1  0  0  0
 27 28  1  0  0  0
 28 29  2  0  0  0
 28 38  1  0  0  0
 29 30  1  0  0  0
 31 32  2  0  0  0
 31 36  1  0  0  0
 32 33  1  0  0  0
 33 34  2  0  0  0
 34 35  1  0  0  0
 35 36  2  0  0  0
 37 38  1  0  0  0
 39 41  2  0  0  0
 40 41  1  0  0  0
 40 43  1  0  0  0
M  END
>  <CHROM.0>
-144.79702580,-177.35974203,-168.81636256,4.13680031,-2.34503260

>  <CHROM.1>
124.94708366,-84.03598997,-135.99453707,-32.77364770,-151.80881716,110.93884902
-74.63850492,-160.84867372,-164.32327377,179.33779840,-45.00132819,-51.30072433
-2.36211973,49.64544672,-40.71883384,18.26091296,2.46154279,0.74349184,2.91803427

>  <FORMUL>
      570    C34 H30 N2 O5

>  <HET>
 570  D 200      41

>  <HETNAM>
     570 2-(2-BENZOYL-PHENYLAMINO)-3-{4-[2-(5-METHYL-2-PHENYL-OX
   2 570 AZOL-4-YL)-ETHOXY]-PHENYL}-PROPIONIC ACID

>  <HETSYN>
     570 GI262570

>  <Name>
570.pdb

>  <RI>
0

>  <Rbt.Current_Directory>
/home/malgorzata/Desktop/rDOCK_IFD/test14/IFD

>  <Rbt.Executable>
rbdock ($Id: //depot/dev/client3/rdock/2013.1/src/exe/rbdock.cxx#4 $)

>  <Rbt.Library>
libRbt.so (2013.1, Build901 2013/11/27)

>  <Rbt.Parameter_File>
/home/malgorzata/Desktop/rDock_2013.1_src/data/scripts/hard_docking.prm

>  <Rbt.Receptor>
cavity.prm

>  <SCORE>
-11.3653

>  <SCORE.INTER>
-19.0227

>  <SCORE.INTER.CONST>
1

>  <SCORE.INTER.POLAR>
0

>  <SCORE.INTER.REPUL>
0

>  <SCORE.INTER.ROT>
12

>  <SCORE.INTER.VDW>
-36.4227

>  <SCORE.INTER.norm>
-0.463967

>  <SCORE.INTRA>
8.27644

>  <SCORE.INTRA.DIHEDRAL>
16.8887

>  <SCORE.INTRA.DIHEDRAL.0>
12.9748

>  <SCORE.INTRA.POLAR>
0.058673

>  <SCORE.INTRA.POLAR.0>
-0.058673

>  <SCORE.INTRA.REPUL>
0

>  <SCORE.INTRA.REPUL.0>
0

>  <SCORE.INTRA.VDW>
-0.367397

>  <SCORE.INTRA.VDW.0>
-4.98062

>  <SCORE.INTRA.norm>
0.201864

>  <SCORE.RESTR>
0.542335

>  <SCORE.RESTR.CAVITY>
0.542335

>  <SCORE.RESTR.norm>
0.0132277

>  <SCORE.SYSTEM>
-1.16138

>  <SCORE.SYSTEM.CONST>
0

>  <SCORE.SYSTEM.DIHEDRAL>
1.09552

>  <SCORE.SYSTEM.POLAR>
-0.154176

>  <SCORE.SYSTEM.REPUL>
0.0970918

>  <SCORE.SYSTEM.VDW>
-1.6704

>  <SCORE.SYSTEM.norm>
-0.0283263

>  <SCORE.heavy>
41

>  <SCORE.norm>
-0.277201

$$$$
