OHT.pdb
  rDOCK(R)          3D
libRbt.so/2013.1/901 2013/11/27
 30 32  0  0  0  0  0  0  0  0999 V2000
   67.0396   32.3484   83.3765 C   0  0  0  0  0  0
   66.0824   33.3894   83.8886 C   0  0  0  0  0  0
   66.2535   34.7200   83.1856 C   0  0  0  0  0  0
   65.2653   34.9497   82.0878 C   0  0  0  0  0  0
   65.3438   34.2176   80.8841 C   0  0  0  0  0  0
   64.3917   34.3982   79.8803 C   0  0  0  0  0  0
   63.3544   35.2965   80.0370 C   0  0  0  0  0  0
   63.2634   36.0192   81.2027 C   0  0  0  0  0  0
   64.2110   35.8455   82.2178 C   0  0  0  0  0  0
   67.2234   35.6169   83.5313 C   0  0  0  0  0  0
   68.0465   35.5203   84.7925 C   0  0  0  0  0  0
   69.2082   34.6906   84.8724 C   0  0  0  0  0  0
   69.9247   34.5786   86.0727 C   0  0  0  0  0  0
   69.4877   35.2943   87.2034 C   0  0  0  0  0  0
   70.1889   35.1535   88.3635 O   0  0  0  0  0  0
   68.3423   36.1199   87.1351 C   0  0  0  0  0  0
   67.6458   36.2161   85.9371 C   0  0  0  0  0  0
   67.5487   36.7836   82.7052 C   0  0  0  0  0  0
   68.6456   36.7880   81.8469 C   0  0  0  0  0  0
   68.9500   37.8565   81.0514 C   0  0  0  0  0  0
   68.1450   38.9837   81.0871 C   0  0  0  0  0  0
   68.3565   40.0788   80.2993 O   0  0  0  0  0  0
   68.0976   41.3827   80.8110 C   0  0  0  0  0  0
   69.1217   41.6321   81.8849 C   0  0  0  0  0  0
   70.4790   41.5413   81.4211 N   0  0  0  0  0  0
   71.1080   42.8595   81.3274 C   0  0  0  0  0  0
   71.2638   40.7265   82.3556 C   0  0  0  0  0  0
   67.0309   39.0160   81.9436 C   0  0  0  0  0  0
   66.7486   37.9339   82.7292 C   0  0  0  0  0  0
   69.9063   35.5978   89.1386 H   0  0  0  0  0  0
  1  2  1  0  0  0
  2  3  1  0  0  0
  3  4  1  0  0  0
  3 10  1  0  0  0
  4  5  2  0  0  0
  4  9  1  0  0  0
  5  6  1  0  0  0
  6  7  2  0  0  0
  7  8  1  0  0  0
  8  9  2  0  0  0
 10 11  1  0  0  0
 10 18  1  0  0  0
 11 12  2  0  0  0
 11 17  1  0  0  0
 12 13  1  0  0  0
 13 14  2  0  0  0
 14 15  1  0  0  0
 14 16  1  0  0  0
 15 30  1  0  0  0
 16 17  2  0  0  0
 18 19  2  0  0  0
 18 29  1  0  0  0
 19 20  1  0  0  0
 20 21  2  0  0  0
 21 22  1  0  0  0
 21 28  1  0  0  0
 22 23  1  0  0  0
 23 24  1  0  0  0
 24 25  1  0  0  0
 25 26  1  0  0  0
 25 27  1  0  0  0
 28 29  2  0  0  0
M  END
>  <CHROM.0>
-81.41332522,-134.95658720,-155.68789311,178.96282693

>  <CHROM.1>
98.50002810,-70.87102880,-12.29789039,83.21386657,-99.89991791,-178.18769530
-143.95817378,67.70292680,58.41882646,106.91792058,67.68540180,36.96411863
82.91263467,2.11692175,0.72012770,2.41153505

>  <FORMUL>
      OHT    C26 H29 N1 O2

>  <HET>
 OHT  A 600      29

>  <HETNAM>
     OHT 4-HYDROXYTAMOXIFEN

>  <Name>
OHT.pdb

>  <RI>
0

>  <Rbt.Current_Directory>
/home/malgorzata/Desktop/rDOCK_IFD/Wyniki/5b_estrogen_receptor/IFD

>  <Rbt.Executable>
rbdock ($Id: //depot/dev/client3/rdock/2013.1/src/exe/rbdock.cxx#4 $)

>  <Rbt.Library>
libRbt.so (2013.1, Build901 2013/11/27)

>  <Rbt.Parameter_File>
/home/malgorzata/Desktop/rDock_2013.1_src/data/scripts/hard_docking.prm

>  <Rbt.Receptor>
cavity.prm

>  <SCORE>
-5.20391

>  <SCORE.INTER>
-4.41266

>  <SCORE.INTER.CONST>
1

>  <SCORE.INTER.POLAR>
0

>  <SCORE.INTER.REPUL>
0

>  <SCORE.INTER.ROT>
9

>  <SCORE.INTER.VDW>
-18.8127

>  <SCORE.INTER.norm>
-0.152161

>  <SCORE.INTRA>
-5.03879

>  <SCORE.INTRA.DIHEDRAL>
-3.44908

>  <SCORE.INTRA.DIHEDRAL.0>
14.7815

>  <SCORE.INTRA.POLAR>
0

>  <SCORE.INTRA.POLAR.0>
0

>  <SCORE.INTRA.REPUL>
0

>  <SCORE.INTRA.REPUL.0>
0

>  <SCORE.INTRA.VDW>
-3.31425

>  <SCORE.INTRA.VDW.0>
-0.0652974

>  <SCORE.INTRA.norm>
-0.173751

>  <SCORE.RESTR>
1.71726

>  <SCORE.RESTR.CAVITY>
1.71726

>  <SCORE.RESTR.norm>
0.0592158

>  <SCORE.SYSTEM>
2.53028

>  <SCORE.SYSTEM.CONST>
0

>  <SCORE.SYSTEM.DIHEDRAL>
6.95556

>  <SCORE.SYSTEM.REPUL>
0.202461

>  <SCORE.SYSTEM.VDW>
-1.95981

>  <SCORE.SYSTEM.norm>
0.087251

>  <SCORE.heavy>
29

>  <SCORE.norm>
-0.179445

$$$$
OHT.pdb
  rDOCK(R)          3D
libRbt.so/2013.1/901 2013/11/27
 30 32  0  0  0  0  0  0  0  0999 V2000
   64.5558   35.8422   81.9267 C   0  0  0  0  0  0
   65.6416   35.1069   82.6633 C   0  0  0  0  0  0
   66.9371   35.8905   82.7053 C   0  0  0  0  0  0
   67.2849   36.4016   84.0663 C   0  0  0  0  0  0
   66.5774   37.4840   84.6309 C   0  0  0  0  0  0
   66.8707   37.9279   85.9207 C   0  0  0  0  0  0
   67.8588   37.3242   86.6734 C   0  0  0  0  0  0
   68.5590   36.2692   86.1384 C   0  0  0  0  0  0
   68.2727   35.8133   84.8467 C   0  0  0  0  0  0
   67.7061   36.1032   81.5972 C   0  0  0  0  0  0
   68.0371   35.0332   80.5858 C   0  0  0  0  0  0
   67.9829   35.2832   79.1791 C   0  0  0  0  0  0
   68.2444   34.2565   78.2605 C   0  0  0  0  0  0
   68.5627   32.9712   78.7386 C   0  0  0  0  0  0
   68.7931   31.9852   77.8263 O   0  0  0  0  0  0
   68.6222   32.7132   80.1270 C   0  0  0  0  0  0
   68.3584   33.7438   81.0204 C   0  0  0  0  0  0
   68.3040   37.4063   81.2911 C   0  0  0  0  0  0
   67.6304   38.5979   81.5487 C   0  0  0  0  0  0
   68.1815   39.8219   81.2932 C   0  0  0  0  0  0
   69.4584   39.8964   80.7602 C   0  0  0  0  0  0
   70.0962   41.0774   80.5095 O   0  0  0  0  0  0
   69.9070   42.1864   81.3832 C   0  0  0  0  0  0
   70.5027   41.7939   82.7081 C   0  0  0  0  0  0
   71.8975   41.4546   82.6365 N   0  0  0  0  0  0
   72.7505   42.6106   82.9166 C   0  0  0  0  0  0
   72.2010   40.4134   83.6249 C   0  0  0  0  0  0
   70.1671   38.7142   80.4845 C   0  0  0  0  0  0
   69.5930   37.5026   80.7494 C   0  0  0  0  0  0
   68.9034   31.0995   78.1116 H   0  0  0  0  0  0
  1  2  1  0  0  0
  2  3  1  0  0  0
  3  4  1  0  0  0
  3 10  1  0  0  0
  4  5  2  0  0  0
  4  9  1  0  0  0
  5  6  1  0  0  0
  6  7  2  0  0  0
  7  8  1  0  0  0
  8  9  2  0  0  0
 10 11  1  0  0  0
 10 18  1  0  0  0
 11 12  2  0  0  0
 11 17  1  0  0  0
 12 13  1  0  0  0
 13 14  2  0  0  0
 14 15  1  0  0  0
 14 16  1  0  0  0
 15 30  1  0  0  0
 16 17  2  0  0  0
 18 19  2  0  0  0
 18 29  1  0  0  0
 19 20  1  0  0  0
 20 21  2  0  0  0
 21 22  1  0  0  0
 21 28  1  0  0  0
 22 23  1  0  0  0
 23 24  1  0  0  0
 24 25  1  0  0  0
 25 26  1  0  0  0
 25 27  1  0  0  0
 28 29  2  0  0  0
M  END
>  <CHROM.0>
-87.36521625,-113.41499592,-90.58551935,177.80189905

>  <CHROM.1>
110.35513011,-73.36812626,-44.53618280,136.35842713,-37.28471230,-172.53213914
35.63040702,65.52783180,58.58710638,93.01087834,68.65056187,37.34727221,81.93503869
2.25322837,-0.94598934,-2.23425008

>  <FORMUL>
      OHT    C26 H29 N1 O2

>  <HET>
 OHT  A 600      29

>  <HETNAM>
     OHT 4-HYDROXYTAMOXIFEN

>  <Name>
OHT.pdb

>  <RI>
0

>  <Rbt.Current_Directory>
/home/malgorzata/Desktop/rDOCK_IFD/Wyniki/5b_estrogen_receptor/IFD

>  <Rbt.Executable>
rbdock ($Id: //depot/dev/client3/rdock/2013.1/src/exe/rbdock.cxx#4 $)

>  <Rbt.Library>
libRbt.so (2013.1, Build901 2013/11/27)

>  <Rbt.Parameter_File>
/home/malgorzata/Desktop/rDock_2013.1_src/data/scripts/hard_docking.prm

>  <Rbt.Receptor>
cavity.prm

>  <SCORE>
-5.76618

>  <SCORE.INTER>
-2.86374

>  <SCORE.INTER.CONST>
1

>  <SCORE.INTER.POLAR>
0

>  <SCORE.INTER.REPUL>
0

>  <SCORE.INTER.ROT>
9

>  <SCORE.INTER.VDW>
-17.2637

>  <SCORE.INTER.norm>
-0.0987495

>  <SCORE.INTRA>
-5.26692

>  <SCORE.INTRA.DIHEDRAL>
-5.29356

>  <SCORE.INTRA.DIHEDRAL.0>
14.7815

>  <SCORE.INTRA.POLAR>
0

>  <SCORE.INTRA.POLAR.0>
0

>  <SCORE.INTRA.REPUL>
0

>  <SCORE.INTRA.REPUL.0>
0

>  <SCORE.INTRA.VDW>
-2.62015

>  <SCORE.INTRA.VDW.0>
-0.0652974

>  <SCORE.INTRA.norm>
-0.181618

>  <SCORE.RESTR>
0.40443

>  <SCORE.RESTR.CAVITY>
0.40443

>  <SCORE.RESTR.norm>
0.0139459

>  <SCORE.SYSTEM>
1.96005

>  <SCORE.SYSTEM.CONST>
0

>  <SCORE.SYSTEM.DIHEDRAL>
7.77317

>  <SCORE.SYSTEM.REPUL>
0.515092

>  <SCORE.SYSTEM.VDW>
-4.502

>  <SCORE.SYSTEM.norm>
0.0675878

>  <SCORE.heavy>
29

>  <SCORE.norm>
-0.198834

$$$$
OHT.pdb
  rDOCK(R)          3D
libRbt.so/2013.1/901 2013/11/27
 30 32  0  0  0  0  0  0  0  0999 V2000
   71.7808   31.4101   80.7426 C   0  0  0  0  0  0
   70.6286   31.6405   81.6815 C   0  0  0  0  0  0
   69.8946   32.9310   81.3816 C   0  0  0  0  0  0
   70.3581   34.0897   82.2044 C   0  0  0  0  0  0
   71.2596   35.0356   81.6718 C   0  0  0  0  0  0
   71.6529   36.1429   82.4241 C   0  0  0  0  0  0
   71.1746   36.3391   83.7047 C   0  0  0  0  0  0
   70.2967   35.4268   84.2398 C   0  0  0  0  0  0
   69.8930   34.3132   83.4946 C   0  0  0  0  0  0
   68.9042   33.0151   80.4453 C   0  0  0  0  0  0
   67.5772   33.6929   80.6842 C   0  0  0  0  0  0
   66.9164   33.6309   81.9506 C   0  0  0  0  0  0
   65.6592   34.2254   82.1302 C   0  0  0  0  0  0
   65.0509   34.8873   81.0469 C   0  0  0  0  0  0
   63.8201   35.4398   81.2406 O   0  0  0  0  0  0
   65.6961   34.9576   79.7913 C   0  0  0  0  0  0
   66.9407   34.3610   79.6338 C   0  0  0  0  0  0
   69.0335   32.4318   79.1066 C   0  0  0  0  0  0
   69.7314   33.0810   78.0910 C   0  0  0  0  0  0
   69.8834   32.5415   76.8448 C   0  0  0  0  0  0
   69.3305   31.3018   76.5669 C   0  0  0  0  0  0
   69.4665   30.6756   75.3611 O   0  0  0  0  0  0
   70.1938   31.3063   74.3113 C   0  0  0  0  0  0
   69.2269   32.2222   73.6109 C   0  0  0  0  0  0
   68.8678   33.3812   74.3814 N   0  0  0  0  0  0
   69.7750   34.5015   74.1280 C   0  0  0  0  0  0
   67.5087   33.8052   74.0261 C   0  0  0  0  0  0
   68.6167   30.6186   77.5668 C   0  0  0  0  0  0
   68.4791   31.1804   78.8051 C   0  0  0  0  0  0
   63.3999   35.9039   80.5434 H   0  0  0  0  0  0
  1  2  1  0  0  0
  2  3  1  0  0  0
  3  4  1  0  0  0
  3 10  1  0  0  0
  4  5  2  0  0  0
  4  9  1  0  0  0
  5  6  1  0  0  0
  6  7  2  0  0  0
  7  8  1  0  0  0
  8  9  2  0  0  0
 10 11  1  0  0  0
 10 18  1  0  0  0
 11 12  2  0  0  0
 11 17  1  0  0  0
 12 13  1  0  0  0
 13 14  2  0  0  0
 14 15  1  0  0  0
 14 16  1  0  0  0
 15 30  1  0  0  0
 16 17  2  0  0  0
 18 19  2  0  0  0
 18 29  1  0  0  0
 19 20  1  0  0  0
 20 21  2  0  0  0
 21 22  1  0  0  0
 21 28  1  0  0  0
 22 23  1  0  0  0
 23 24  1  0  0  0
 24 25  1  0  0  0
 25 26  1  0  0  0
 25 27  1  0  0  0
 28 29  2  0  0  0
M  END
>  <CHROM.0>
125.92342813,-113.17419351,-82.66994194,2.48848844

>  <CHROM.1>
-94.94451116,99.62003613,133.00280639,-36.36919055,-80.63721405,178.56696979
-0.71322968,-84.89139546,71.40787025,89.97590507,68.86405622,33.38675374
79.25175997,-1.59799948,0.28257950,-1.86883541

>  <FORMUL>
      OHT    C26 H29 N1 O2

>  <HET>
 OHT  A 600      29

>  <HETNAM>
     OHT 4-HYDROXYTAMOXIFEN

>  <Name>
OHT.pdb

>  <RI>
0

>  <Rbt.Current_Directory>
/home/malgorzata/Desktop/rDOCK_IFD/Wyniki/5b_estrogen_receptor/IFD

>  <Rbt.Executable>
rbdock ($Id: //depot/dev/client3/rdock/2013.1/src/exe/rbdock.cxx#4 $)

>  <Rbt.Library>
libRbt.so (2013.1, Build901 2013/11/27)

>  <Rbt.Parameter_File>
/home/malgorzata/Desktop/rDock_2013.1_src/data/scripts/hard_docking.prm

>  <Rbt.Receptor>
cavity.prm

>  <SCORE>
-6.07453

>  <SCORE.INTER>
-3.58812

>  <SCORE.INTER.CONST>
1

>  <SCORE.INTER.POLAR>
-0.632456

>  <SCORE.INTER.REPUL>
0

>  <SCORE.INTER.ROT>
9

>  <SCORE.INTER.VDW>
-15.8378

>  <SCORE.INTER.norm>
-0.123728

>  <SCORE.INTRA>
-4.41983

>  <SCORE.INTRA.DIHEDRAL>
-3.04081

>  <SCORE.INTRA.DIHEDRAL.0>
14.7815

>  <SCORE.INTRA.POLAR>
0

>  <SCORE.INTRA.POLAR.0>
0

>  <SCORE.INTRA.REPUL>
0

>  <SCORE.INTRA.REPUL.0>
0

>  <SCORE.INTRA.VDW>
-2.89942

>  <SCORE.INTRA.VDW.0>
-0.0652974

>  <SCORE.INTRA.norm>
-0.152408

>  <SCORE.RESTR>
0

>  <SCORE.RESTR.CAVITY>
0

>  <SCORE.RESTR.norm>
0

>  <SCORE.SYSTEM>
1.93342

>  <SCORE.SYSTEM.CONST>
0

>  <SCORE.SYSTEM.DIHEDRAL>
7.76352

>  <SCORE.SYSTEM.REPUL>
0.512692

>  <SCORE.SYSTEM.VDW>
-4.5118

>  <SCORE.SYSTEM.norm>
0.0666696

>  <SCORE.heavy>
29

>  <SCORE.norm>
-0.209466

$$$$
OHT.pdb
  rDOCK(R)          3D
libRbt.so/2013.1/901 2013/11/27
 30 32  0  0  0  0  0  0  0  0999 V2000
   67.2616   31.4330   80.8242 C   0  0  0  0  0  0
   66.4280   32.1106   81.8768 C   0  0  0  0  0  0
   66.6694   33.6052   81.9242 C   0  0  0  0  0  0
   65.5096   34.4156   81.4418 C   0  0  0  0  0  0
   64.8974   34.1294   80.2031 C   0  0  0  0  0  0
   63.7845   34.8551   79.7772 C   0  0  0  0  0  0
   63.2577   35.8698   80.5520 C   0  0  0  0  0  0
   63.8425   36.1629   81.7610 C   0  0  0  0  0  0
   64.9579   35.4409   82.2002 C   0  0  0  0  0  0
   67.8408   34.1488   82.3679 C   0  0  0  0  0  0
   68.9693   33.3427   82.9629 C   0  0  0  0  0  0
   68.8967   32.8076   84.2868 C   0  0  0  0  0  0
   69.9809   32.1068   84.8344 C   0  0  0  0  0  0
   71.1468   31.9340   84.0648 C   0  0  0  0  0  0
   72.1944   31.2668   84.6262 O   0  0  0  0  0  0
   71.2287   32.4560   82.7538 C   0  0  0  0  0  0
   70.1440   33.1482   82.2303 C   0  0  0  0  0  0
   68.1084   35.5895   82.3218 C   0  0  0  0  0  0
   68.3284   36.2535   81.1173 C   0  0  0  0  0  0
   68.5547   37.5995   81.0528 C   0  0  0  0  0  0
   68.5661   38.3454   82.2205 C   0  0  0  0  0  0
   68.7480   39.6985   82.2417 O   0  0  0  0  0  0
   68.0471   40.5240   81.3163 C   0  0  0  0  0  0
   68.6592   41.8950   81.4168 C   0  0  0  0  0  0
   70.0621   41.9255   81.1060 N   0  0  0  0  0  0
   70.3906   43.0229   80.1950 C   0  0  0  0  0  0
   70.8346   42.1098   82.3399 C   0  0  0  0  0  0
   68.3508   37.7083   83.4548 C   0  0  0  0  0  0
   68.1268   36.3606   83.4918 C   0  0  0  0  0  0
   72.0923   30.8505   85.4594 H   0  0  0  0  0  0
  1  2  1  0  0  0
  2  3  1  0  0  0
  3  4  1  0  0  0
  3 10  1  0  0  0
  4  5  2  0  0  0
  4  9  1  0  0  0
  5  6  1  0  0  0
  6  7  2  0  0  0
  7  8  1  0  0  0
  8  9  2  0  0  0
 10 11  1  0  0  0
 10 18  1  0  0  0
 11 12  2  0  0  0
 11 17  1  0  0  0
 12 13  1  0  0  0
 13 14  2  0  0  0
 14 15  1  0  0  0
 14 16  1  0  0  0
 15 30  1  0  0  0
 16 17  2  0  0  0
 18 19  2  0  0  0
 18 29  1  0  0  0
 19 20  1  0  0  0
 20 21  2  0  0  0
 21 22  1  0  0  0
 21 28  1  0  0  0
 22 23  1  0  0  0
 23 24  1  0  0  0
 24 25  1  0  0  0
 25 26  1  0  0  0
 25 27  1  0  0  0
 28 29  2  0  0  0
M  END
>  <CHROM.0>
-78.09159879,163.57647994,-74.35447203,172.72668515

>  <CHROM.1>
110.48085244,-50.48658646,-5.33684573,-74.78428351,-70.66737531,7.24458710
45.01649843,-169.18530146,59.78493004,133.37401303,68.12839178,35.94670931
82.10257866,1.64885266,0.36775587,2.95578818

>  <FORMUL>
      OHT    C26 H29 N1 O2

>  <HET>
 OHT  A 600      29

>  <HETNAM>
     OHT 4-HYDROXYTAMOXIFEN

>  <Name>
OHT.pdb

>  <RI>
0

>  <Rbt.Current_Directory>
/home/malgorzata/Desktop/rDOCK_IFD/Wyniki/5b_estrogen_receptor/IFD

>  <Rbt.Executable>
rbdock ($Id: //depot/dev/client3/rdock/2013.1/src/exe/rbdock.cxx#4 $)

>  <Rbt.Library>
libRbt.so (2013.1, Build901 2013/11/27)

>  <Rbt.Parameter_File>
/home/malgorzata/Desktop/rDock_2013.1_src/data/scripts/hard_docking.prm

>  <Rbt.Receptor>
cavity.prm

>  <SCORE>
4.00883

>  <SCORE.INTER>
-2.56302

>  <SCORE.INTER.CONST>
1

>  <SCORE.INTER.POLAR>
0

>  <SCORE.INTER.REPUL>
0

>  <SCORE.INTER.ROT>
9

>  <SCORE.INTER.VDW>
-16.963

>  <SCORE.INTER.norm>
-0.0883801

>  <SCORE.INTRA>
-4.94669

>  <SCORE.INTRA.DIHEDRAL>
-2.85084

>  <SCORE.INTRA.DIHEDRAL.0>
14.7815

>  <SCORE.INTRA.POLAR>
0

>  <SCORE.INTRA.POLAR.0>
0

>  <SCORE.INTRA.REPUL>
0

>  <SCORE.INTRA.REPUL.0>
0

>  <SCORE.INTRA.VDW>
-3.52127

>  <SCORE.INTRA.VDW.0>
-0.0652974

>  <SCORE.INTRA.norm>
-0.170576

>  <SCORE.RESTR>
2.1627

>  <SCORE.RESTR.CAVITY>
2.1627

>  <SCORE.RESTR.norm>
0.0745758

>  <SCORE.SYSTEM>
9.35585

>  <SCORE.SYSTEM.CONST>
0

>  <SCORE.SYSTEM.DIHEDRAL>
2.11997

>  <SCORE.SYSTEM.VDW>
8.29586

>  <SCORE.SYSTEM.norm>
0.322615

>  <SCORE.heavy>
29

>  <SCORE.norm>
0.138235

$$$$
OHT.pdb
  rDOCK(R)          3D
libRbt.so/2013.1/901 2013/11/27
 30 32  0  0  0  0  0  0  0  0999 V2000
   67.1568   31.7689   80.6787 C   0  0  0  0  0  0
   67.7621   32.5828   81.7893 C   0  0  0  0  0  0
   67.8623   34.0517   81.4337 C   0  0  0  0  0  0
   66.7976   34.8941   82.0593 C   0  0  0  0  0  0
   65.6177   35.2059   81.3508 C   0  0  0  0  0  0
   64.6039   35.9510   81.9539 C   0  0  0  0  0  0
   64.7298   36.4033   83.2526 C   0  0  0  0  0  0
   65.8731   36.1099   83.9571 C   0  0  0  0  0  0
   66.8963   35.3616   83.3641 C   0  0  0  0  0  0
   68.8381   34.5476   80.6173 C   0  0  0  0  0  0
   70.0137   35.3565   81.1080 C   0  0  0  0  0  0
   71.0832   34.7602   81.8462 C   0  0  0  0  0  0
   72.1376   35.5445   82.3356 C   0  0  0  0  0  0
   72.1335   36.9310   82.0919 C   0  0  0  0  0  0
   73.1587   37.6749   82.5948 O   0  0  0  0  0  0
   71.0830   37.5309   81.3607 C   0  0  0  0  0  0
   70.0471   36.7364   80.8857 C   0  0  0  0  0  0
   68.8253   34.3511   79.1645 C   0  0  0  0  0  0
   68.1689   35.2369   78.3133 C   0  0  0  0  0  0
   68.1671   35.0838   76.9555 C   0  0  0  0  0  0
   68.8413   34.0136   76.3895 C   0  0  0  0  0  0
   68.9201   33.8078   75.0419 O   0  0  0  0  0  0
   69.4053   34.8430   74.1924 C   0  0  0  0  0  0
   69.2740   34.3360   72.7818 C   0  0  0  0  0  0
   69.9029   33.0619   72.5650 N   0  0  0  0  0  0
   69.3687   32.3896   71.3798 C   0  0  0  0  0  0
   71.3448   33.2529   72.3704 C   0  0  0  0  0  0
   69.5125   33.0977   77.2180 C   0  0  0  0  0  0
   69.4988   33.2737   78.5733 C   0  0  0  0  0  0
   73.8962   37.2512   82.9880 H   0  0  0  0  0  0
  1  2  1  0  0  0
  2  3  1  0  0  0
  3  4  1  0  0  0
  3 10  1  0  0  0
  4  5  2  0  0  0
  4  9  1  0  0  0
  5  6  1  0  0  0
  6  7  2  0  0  0
  7  8  1  0  0  0
  8  9  2  0  0  0
 10 11  1  0  0  0
 10 18  1  0  0  0
 11 12  2  0  0  0
 11 17  1  0  0  0
 12 13  1  0  0  0
 13 14  2  0  0  0
 14 15  1  0  0  0
 14 16  1  0  0  0
 15 30  1  0  0  0
 16 17  2  0  0  0
 18 19  2  0  0  0
 18 29  1  0  0  0
 19 20  1  0  0  0
 20 21  2  0  0  0
 21 22  1  0  0  0
 21 28  1  0  0  0
 22 23  1  0  0  0
 23 24  1  0  0  0
 24 25  1  0  0  0
 25 26  1  0  0  0
 25 27  1  0  0  0
 28 29  2  0  0  0
M  END
>  <CHROM.0>
-72.30617710,163.66687116,-58.50783743,21.91468310

>  <CHROM.1>
101.95254483,-95.26015061,-106.14805281,71.91060097,88.21109777,8.07559751
54.11962378,-176.11589641,-53.71196111,159.55858912,68.91219464,34.73456943
79.11122041,1.73344398,0.28931690,1.28626897

>  <FORMUL>
      OHT    C26 H29 N1 O2

>  <HET>
 OHT  A 600      29

>  <HETNAM>
     OHT 4-HYDROXYTAMOXIFEN

>  <Name>
OHT.pdb

>  <RI>
0

>  <Rbt.Current_Directory>
/home/malgorzata/Desktop/rDOCK_IFD/Wyniki/5b_estrogen_receptor/IFD

>  <Rbt.Executable>
rbdock ($Id: //depot/dev/client3/rdock/2013.1/src/exe/rbdock.cxx#4 $)

>  <Rbt.Library>
libRbt.so (2013.1, Build901 2013/11/27)

>  <Rbt.Parameter_File>
/home/malgorzata/Desktop/rDock_2013.1_src/data/scripts/hard_docking.prm

>  <Rbt.Receptor>
cavity.prm

>  <SCORE>
2.27918

>  <SCORE.INTER>
-2.20262

>  <SCORE.INTER.CONST>
1

>  <SCORE.INTER.POLAR>
0

>  <SCORE.INTER.REPUL>
0

>  <SCORE.INTER.ROT>
9

>  <SCORE.INTER.VDW>
-16.6026

>  <SCORE.INTER.norm>
-0.0759524

>  <SCORE.INTRA>
-5.64016

>  <SCORE.INTRA.DIHEDRAL>
-3.6458

>  <SCORE.INTRA.DIHEDRAL.0>
14.7815

>  <SCORE.INTRA.POLAR>
0

>  <SCORE.INTRA.POLAR.0>
0

>  <SCORE.INTRA.REPUL>
0

>  <SCORE.INTRA.REPUL.0>
0

>  <SCORE.INTRA.VDW>
-3.81726

>  <SCORE.INTRA.VDW.0>
-0.0652974

>  <SCORE.INTRA.norm>
-0.194488

>  <SCORE.RESTR>
0.409653

>  <SCORE.RESTR.CAVITY>
0.409653

>  <SCORE.RESTR.norm>
0.014126

>  <SCORE.SYSTEM>
9.71231

>  <SCORE.SYSTEM.CONST>
0

>  <SCORE.SYSTEM.DIHEDRAL>
2.70945

>  <SCORE.SYSTEM.VDW>
8.35758

>  <SCORE.SYSTEM.norm>
0.334907

>  <SCORE.heavy>
29

>  <SCORE.norm>
0.0785924

$$$$
OHT.pdb
  rDOCK(R)          3D
libRbt.so/2013.1/901 2013/11/27
 30 32  0  0  0  0  0  0  0  0999 V2000
   67.8704   37.9373   82.1193 C   0  0  0  0  0  0
   67.0477   36.7465   81.7101 C   0  0  0  0  0  0
   67.9078   35.5552   81.3424 C   0  0  0  0  0  0
   68.3956   35.5810   79.9296 C   0  0  0  0  0  0
   69.7111   35.9942   79.6300 C   0  0  0  0  0  0
   70.1802   35.9709   78.3162 C   0  0  0  0  0  0
   69.3718   35.5477   77.2795 C   0  0  0  0  0  0
   68.0870   35.1430   77.5532 C   0  0  0  0  0  0
   67.6054   35.1598   78.8671 C   0  0  0  0  0  0
   68.2026   34.5579   82.2273 C   0  0  0  0  0  0
   68.0905   34.7030   83.7252 C   0  0  0  0  0  0
   68.7410   35.7631   84.4304 C   0  0  0  0  0  0
   68.6634   35.8443   85.8282 C   0  0  0  0  0  0
   67.9354   34.8677   86.5340 C   0  0  0  0  0  0
   67.8914   34.9566   87.8933 O   0  0  0  0  0  0
   67.2859   33.8169   85.8471 C   0  0  0  0  0  0
   67.3760   33.7538   84.4623 C   0  0  0  0  0  0
   68.6783   33.2390   81.7986 C   0  0  0  0  0  0
   68.0392   32.5250   80.7878 C   0  0  0  0  0  0
   68.4826   31.3060   80.3582 C   0  0  0  0  0  0
   69.6103   30.7478   80.9384 C   0  0  0  0  0  0
   70.1408   29.5531   80.5439 O   0  0  0  0  0  0
   71.4973   29.2430   80.8481 C   0  0  0  0  0  0
   72.3435   30.2070   80.0613 C   0  0  0  0  0  0
   73.7286   30.2061   80.4453 N   0  0  0  0  0  0
   74.6034   30.5220   79.3152 C   0  0  0  0  0  0
   73.9494   31.2137   81.4890 C   0  0  0  0  0  0
   70.2794   31.4387   81.9636 C   0  0  0  0  0  0
   69.8152   32.6565   82.3750 C   0  0  0  0  0  0
   67.5404   34.2494   88.3979 H   0  0  0  0  0  0
  1  2  1  0  0  0
  2  3  1  0  0  0
  3  4  1  0  0  0
  3 10  1  0  0  0
  4  5  2  0  0  0
  4  9  1  0  0  0
  5  6  1  0  0  0
  6  7  2  0  0  0
  7  8  1  0  0  0
  8  9  2  0  0  0
 10 11  1  0  0  0
 10 18  1  0  0  0
 11 12  2  0  0  0
 11 17  1  0  0  0
 12 13  1  0  0  0
 13 14  2  0  0  0
 14 15  1  0  0  0
 14 16  1  0  0  0
 15 30  1  0  0  0
 16 17  2  0  0  0
 18 19  2  0  0  0
 18 29  1  0  0  0
 19 20  1  0  0  0
 20 21  2  0  0  0
 21 22  1  0  0  0
 21 28  1  0  0  0
 22 23  1  0  0  0
 23 24  1  0  0  0
 24 25  1  0  0  0
 25 26  1  0  0  0
 25 27  1  0  0  0
 28 29  2  0  0  0
M  END
>  <CHROM.0>
140.16819713,-59.75712229,-157.80429958,-172.02013245

>  <CHROM.1>
-84.13354622,100.68321007,-19.42657833,-53.75802420,-48.37260003,-169.75166665
159.45452087,-66.38750611,168.62642266,149.03083832,69.42518767,33.56372606
81.70081817,2.76485203,-0.93163475,1.85377770

>  <FORMUL>
      OHT    C26 H29 N1 O2

>  <HET>
 OHT  A 600      29

>  <HETNAM>
     OHT 4-HYDROXYTAMOXIFEN

>  <Name>
OHT.pdb

>  <RI>
0

>  <Rbt.Current_Directory>
/home/malgorzata/Desktop/rDOCK_IFD/Wyniki/5b_estrogen_receptor/IFD

>  <Rbt.Executable>
rbdock ($Id: //depot/dev/client3/rdock/2013.1/src/exe/rbdock.cxx#4 $)

>  <Rbt.Library>
libRbt.so (2013.1, Build901 2013/11/27)

>  <Rbt.Parameter_File>
/home/malgorzata/Desktop/rDock_2013.1_src/data/scripts/hard_docking.prm

>  <Rbt.Receptor>
cavity.prm

>  <SCORE>
-5.89227

>  <SCORE.INTER>
-1.45323

>  <SCORE.INTER.CONST>
1

>  <SCORE.INTER.POLAR>
0

>  <SCORE.INTER.REPUL>
0

>  <SCORE.INTER.ROT>
9

>  <SCORE.INTER.VDW>
-15.8532

>  <SCORE.INTER.norm>
-0.0501115

>  <SCORE.INTRA>
-2.76319

>  <SCORE.INTRA.DIHEDRAL>
-4.08812

>  <SCORE.INTRA.DIHEDRAL.0>
14.7815

>  <SCORE.INTRA.POLAR>
0

>  <SCORE.INTRA.POLAR.0>
0

>  <SCORE.INTRA.REPUL>
0

>  <SCORE.INTRA.REPUL.0>
0

>  <SCORE.INTRA.VDW>
-0.71913

>  <SCORE.INTRA.VDW.0>
-0.0652974

>  <SCORE.INTRA.norm>
-0.0952824

>  <SCORE.RESTR>
3.87341

>  <SCORE.RESTR.CAVITY>
3.87341

>  <SCORE.RESTR.norm>
0.133566

>  <SCORE.SYSTEM>
-5.54925

>  <SCORE.SYSTEM.CONST>
0

>  <SCORE.SYSTEM.DIHEDRAL>
0.906102

>  <SCORE.SYSTEM.POLAR>
-0.0961402

>  <SCORE.SYSTEM.REPUL>
1.59523

>  <SCORE.SYSTEM.VDW>
-13.6516

>  <SCORE.SYSTEM.norm>
-0.191354

>  <SCORE.heavy>
29

>  <SCORE.norm>
-0.203182

$$$$
OHT.pdb
  rDOCK(R)          3D
libRbt.so/2013.1/901 2013/11/27
 30 32  0  0  0  0  0  0  0  0999 V2000
   66.5122   31.9006   81.3334 C   0  0  0  0  0  0
   67.2319   32.6146   82.4445 C   0  0  0  0  0  0
   67.3680   34.0993   82.1775 C   0  0  0  0  0  0
   66.4220   34.9408   82.9723 C   0  0  0  0  0  0
   65.1376   35.2459   82.4740 C   0  0  0  0  0  0
   64.2384   35.9901   83.2383 C   0  0  0  0  0  0
   64.5818   36.4480   84.4952 C   0  0  0  0  0  0
   65.8295   36.1612   84.9956 C   0  0  0  0  0  0
   66.7396   35.4138   84.2396 C   0  0  0  0  0  0
   68.2734   34.6089   81.2914 C   0  0  0  0  0  0
   68.8841   35.9837   81.4109 C   0  0  0  0  0  0
   68.0879   37.1698   81.3515 C   0  0  0  0  0  0
   68.6871   38.4362   81.4126 C   0  0  0  0  0  0
   70.0865   38.5292   81.5338 C   0  0  0  0  0  0
   70.6471   39.7710   81.5710 O   0  0  0  0  0  0
   70.8834   37.3635   81.5965 C   0  0  0  0  0  0
   70.2704   36.1185   81.5331 C   0  0  0  0  0  0
   68.7308   33.8630   80.1151 C   0  0  0  0  0  0
   69.6949   32.8626   80.2138 C   0  0  0  0  0  0
   70.1153   32.1401   79.1328 C   0  0  0  0  0  0
   69.5694   32.3993   77.8859 C   0  0  0  0  0  0
   69.9060   31.7002   76.7623 O   0  0  0  0  0  0
   69.7385   32.2949   75.4789 C   0  0  0  0  0  0
   70.7917   33.3631   75.3614 C   0  0  0  0  0  0
   70.6619   34.1750   74.1825 N   0  0  0  0  0  0
   71.4017   35.4317   74.3071 C   0  0  0  0  0  0
   71.1915   33.4466   73.0239 C   0  0  0  0  0  0
   68.5959   33.4039   77.7480 C   0  0  0  0  0  0
   68.1929   34.1121   78.8452 C   0  0  0  0  0  0
   71.5713   39.8643   81.6944 H   0  0  0  0  0  0
  1  2  1  0  0  0
  2  3  1  0  0  0
  3  4  1  0  0  0
  3 10  1  0  0  0
  4  5  2  0  0  0
  4  9  1  0  0  0
  5  6  1  0  0  0
  6  7  2  0  0  0
  7  8  1  0  0  0
  8  9  2  0  0  0
 10 11  1  0  0  0
 10 18  1  0  0  0
 11 12  2  0  0  0
 11 17  1  0  0  0
 12 13  1  0  0  0
 13 14  2  0  0  0
 14 15  1  0  0  0
 14 16  1  0  0  0
 15 30  1  0  0  0
 16 17  2  0  0  0
 18 19  2  0  0  0
 18 29  1  0  0  0
 19 20  1  0  0  0
 20 21  2  0  0  0
 21 22  1  0  0  0
 21 28  1  0  0  0
 22 23  1  0  0  0
 23 24  1  0  0  0
 24 25  1  0  0  0
 25 26  1  0  0  0
 25 27  1  0  0  0
 28 29  2  0  0  0
M  END
>  <CHROM.0>
97.89100204,-133.93423010,-159.65313777,178.55497951

>  <CHROM.1>
104.02634955,-89.11384844,-151.56044355,-62.46836509,-78.99664356,176.92872681
-155.91851669,71.14657236,-172.92805982,161.77677286,68.62793259,34.81312428
79.99524637,2.26272308,0.86114257,0.67861773

>  <FORMUL>
      OHT    C26 H29 N1 O2

>  <HET>
 OHT  A 600      29

>  <HETNAM>
     OHT 4-HYDROXYTAMOXIFEN

>  <Name>
OHT.pdb

>  <RI>
0

>  <Rbt.Current_Directory>
/home/malgorzata/Desktop/rDOCK_IFD/Wyniki/5b_estrogen_receptor/IFD

>  <Rbt.Executable>
rbdock ($Id: //depot/dev/client3/rdock/2013.1/src/exe/rbdock.cxx#4 $)

>  <Rbt.Library>
libRbt.so (2013.1, Build901 2013/11/27)

>  <Rbt.Parameter_File>
/home/malgorzata/Desktop/rDock_2013.1_src/data/scripts/hard_docking.prm

>  <Rbt.Receptor>
cavity.prm

>  <SCORE>
-4.32862

>  <SCORE.INTER>
-3.15521

>  <SCORE.INTER.CONST>
1

>  <SCORE.INTER.POLAR>
0

>  <SCORE.INTER.REPUL>
0

>  <SCORE.INTER.ROT>
9

>  <SCORE.INTER.VDW>
-17.5552

>  <SCORE.INTER.norm>
-0.1088

>  <SCORE.INTRA>
-4.1219

>  <SCORE.INTRA.DIHEDRAL>
-6.011

>  <SCORE.INTRA.DIHEDRAL.0>
14.7815

>  <SCORE.INTRA.POLAR>
0

>  <SCORE.INTRA.POLAR.0>
0

>  <SCORE.INTRA.REPUL>
0

>  <SCORE.INTRA.REPUL.0>
0

>  <SCORE.INTRA.VDW>
-1.11639

>  <SCORE.INTRA.VDW.0>
-0.0652974

>  <SCORE.INTRA.norm>
-0.142134

>  <SCORE.RESTR>
0.356662

>  <SCORE.RESTR.CAVITY>
0.356662

>  <SCORE.RESTR.norm>
0.0122987

>  <SCORE.SYSTEM>
2.59182

>  <SCORE.SYSTEM.CONST>
0

>  <SCORE.SYSTEM.DIHEDRAL>
7.09607

>  <SCORE.SYSTEM.REPUL>
0.227824

>  <SCORE.SYSTEM.VDW>
-2.09533

>  <SCORE.SYSTEM.norm>
0.0893732

>  <SCORE.heavy>
29

>  <SCORE.norm>
-0.149263

$$$$
OHT.pdb
  rDOCK(R)          3D
libRbt.so/2013.1/901 2013/11/27
 30 32  0  0  0  0  0  0  0  0999 V2000
   66.0924   33.1568   83.4095 C   0  0  0  0  0  0
   65.7818   34.6205   83.5614 C   0  0  0  0  0  0
   67.0329   35.4742   83.5651 C   0  0  0  0  0  0
   67.5251   35.8109   84.9358 C   0  0  0  0  0  0
   68.0777   34.8136   85.7672 C   0  0  0  0  0  0
   68.5813   35.1389   87.0270 C   0  0  0  0  0  0
   68.5492   36.4389   87.4921 C   0  0  0  0  0  0
   68.0130   37.4229   86.6959 C   0  0  0  0  0  0
   67.5066   37.1097   85.4295 C   0  0  0  0  0  0
   67.6444   35.8907   82.4174 C   0  0  0  0  0  0
   67.9247   34.9897   81.2397 C   0  0  0  0  0  0
   68.7918   33.8579   81.3464 C   0  0  0  0  0  0
   69.0764   33.0677   80.2234 C   0  0  0  0  0  0
   68.4973   33.4006   78.9842 C   0  0  0  0  0  0
   68.8050   32.6295   77.9033 O   0  0  0  0  0  0
   67.6362   34.5155   78.8676 C   0  0  0  0  0  0
   67.3681   35.2861   79.9919 C   0  0  0  0  0  0
   68.1070   37.2687   82.2263 C   0  0  0  0  0  0
   67.2208   38.3034   81.9368 C   0  0  0  0  0  0
   67.6305   39.5975   81.7799 C   0  0  0  0  0  0
   68.9743   39.9077   81.9134 C   0  0  0  0  0  0
   69.4622   41.1788   81.8087 O   0  0  0  0  0  0
   69.6616   41.7595   80.5235 C   0  0  0  0  0  0
   70.3577   43.0740   80.7510 C   0  0  0  0  0  0
   71.6886   42.9394   81.2768 N   0  0  0  0  0  0
   72.5776   43.9875   80.7736 C   0  0  0  0  0  0
   71.6506   43.0370   82.7404 C   0  0  0  0  0  0
   69.8981   38.8884   82.2024 C   0  0  0  0  0  0
   69.4622   37.6021   82.3544 C   0  0  0  0  0  0
   68.4649   32.8500   77.0585 H   0  0  0  0  0  0
  1  2  1  0  0  0
  2  3  1  0  0  0
  3  4  1  0  0  0
  3 10  1  0  0  0
  4  5  2  0  0  0
  4  9  1  0  0  0
  5  6  1  0  0  0
  6  7  2  0  0  0
  7  8  1  0  0  0
  8  9  2  0  0  0
 10 11  1  0  0  0
 10 18  1  0  0  0
 11 12  2  0  0  0
 11 17  1  0  0  0
 12 13  1  0  0  0
 13 14  2  0  0  0
 14 15  1  0  0  0
 14 16  1  0  0  0
 15 30  1  0  0  0
 16 17  2  0  0  0
 18 19  2  0  0  0
 18 29  1  0  0  0
 19 20  1  0  0  0
 20 21  2  0  0  0
 21 22  1  0  0  0
 21 28  1  0  0  0
 22 23  1  0  0  0
 23 24  1  0  0  0
 24 25  1  0  0  0
 25 26  1  0  0  0
 25 27  1  0  0  0
 28 29  2  0  0  0
M  END
>  <CHROM.0>
-86.91162702,-134.62089640,-74.04596253,3.48778281

>  <CHROM.1>
-96.23773195,69.34392866,-46.01122746,-62.47980244,-76.66184862,-177.26854207
-79.43221751,-173.12524326,66.28928540,146.08165590,68.65066496,37.35461160
82.32860646,2.81069235,-1.18610880,-2.01469031

>  <FORMUL>
      OHT    C26 H29 N1 O2

>  <HET>
 OHT  A 600      29

>  <HETNAM>
     OHT 4-HYDROXYTAMOXIFEN

>  <Name>
OHT.pdb

>  <RI>
0

>  <Rbt.Current_Directory>
/home/malgorzata/Desktop/rDOCK_IFD/Wyniki/5b_estrogen_receptor/IFD

>  <Rbt.Executable>
rbdock ($Id: //depot/dev/client3/rdock/2013.1/src/exe/rbdock.cxx#4 $)

>  <Rbt.Library>
libRbt.so (2013.1, Build901 2013/11/27)

>  <Rbt.Parameter_File>
/home/malgorzata/Desktop/rDock_2013.1_src/data/scripts/hard_docking.prm

>  <Rbt.Receptor>
cavity.prm

>  <SCORE>
-2.20374

>  <SCORE.INTER>
-0.392567

>  <SCORE.INTER.CONST>
1

>  <SCORE.INTER.POLAR>
0

>  <SCORE.INTER.REPUL>
0

>  <SCORE.INTER.ROT>
9

>  <SCORE.INTER.VDW>
-14.7926

>  <SCORE.INTER.norm>
-0.0135368

>  <SCORE.INTRA>
-5.1011

>  <SCORE.INTRA.DIHEDRAL>
-1.47

>  <SCORE.INTRA.DIHEDRAL.0>
14.7815

>  <SCORE.INTRA.POLAR>
0

>  <SCORE.INTRA.POLAR.0>
0

>  <SCORE.INTRA.REPUL>
0

>  <SCORE.INTRA.REPUL.0>
0

>  <SCORE.INTRA.VDW>
-4.3661

>  <SCORE.INTRA.VDW.0>
-0.0652974

>  <SCORE.INTRA.norm>
-0.1759

>  <SCORE.RESTR>
0.872651

>  <SCORE.RESTR.CAVITY>
0.872651

>  <SCORE.RESTR.norm>
0.0300914

>  <SCORE.SYSTEM>
2.41728

>  <SCORE.SYSTEM.CONST>
0

>  <SCORE.SYSTEM.DIHEDRAL>
6.99652

>  <SCORE.SYSTEM.REPUL>
0.210634

>  <SCORE.SYSTEM.VDW>
-2.13415

>  <SCORE.SYSTEM.norm>
0.0833546

>  <SCORE.heavy>
29

>  <SCORE.norm>
-0.0759909

$$$$
OHT.pdb
  rDOCK(R)          3D
libRbt.so/2013.1/901 2013/11/27
 30 32  0  0  0  0  0  0  0  0999 V2000
   67.0871   31.5905   81.0037 C   0  0  0  0  0  0
   68.1634   31.5131   79.9559 C   0  0  0  0  0  0
   69.0189   32.7624   79.9203 C   0  0  0  0  0  0
   70.3943   32.5633   80.4709 C   0  0  0  0  0  0
   70.9258   33.4606   81.4213 C   0  0  0  0  0  0
   72.1903   33.2457   81.9705 C   0  0  0  0  0  0
   72.9521   32.1559   81.5974 C   0  0  0  0  0  0
   72.4504   31.2724   80.6716 C   0  0  0  0  0  0
   71.1827   31.4758   80.1150 C   0  0  0  0  0  0
   68.5649   33.9529   79.4290 C   0  0  0  0  0  0
   68.0979   35.0965   80.2958 C   0  0  0  0  0  0
   66.8191   35.0841   80.9352 C   0  0  0  0  0  0
   66.3885   36.1830   81.6926 C   0  0  0  0  0  0
   67.2312   37.3036   81.8184 C   0  0  0  0  0  0
   66.7822   38.3671   82.5428 O   0  0  0  0  0  0
   68.4987   37.3257   81.1932 C   0  0  0  0  0  0
   68.9060   36.2275   80.4463 C   0  0  0  0  0  0
   68.4721   34.2287   77.9921 C   0  0  0  0  0  0
   68.9822   33.3448   77.0442 C   0  0  0  0  0  0
   68.8830   33.5730   75.7006 C   0  0  0  0  0  0
   68.2518   34.7210   75.2492 C   0  0  0  0  0  0
   68.0775   35.0072   73.9254 O   0  0  0  0  0  0
   68.4314   34.0437   72.9378 C   0  0  0  0  0  0
   68.0369   34.6285   71.6086 C   0  0  0  0  0  0
   68.3058   33.7622   70.4938 N   0  0  0  0  0  0
   67.2872   32.7197   70.3607 C   0  0  0  0  0  0
   68.3201   34.5473   69.2541 C   0  0  0  0  0  0
   67.7275   35.6372   76.1773 C   0  0  0  0  0  0
   67.8401   35.3853   77.5159 C   0  0  0  0  0  0
   65.9682   38.3101   83.0035 H   0  0  0  0  0  0
  1  2  1  0  0  0
  2  3  1  0  0  0
  3  4  1  0  0  0
  3 10  1  0  0  0
  4  5  2  0  0  0
  4  9  1  0  0  0
  5  6  1  0  0  0
  6  7  2  0  0  0
  7  8  1  0  0  0
  8  9  2  0  0  0
 10 11  1  0  0  0
 10 18  1  0  0  0
 11 12  2  0  0  0
 11 17  1  0  0  0
 12 13  1  0  0  0
 13 14  2  0  0  0
 14 15  1  0  0  0
 14 16  1  0  0  0
 15 30  1  0  0  0
 16 17  2  0  0  0
 18 19  2  0  0  0
 18 29  1  0  0  0
 19 20  1  0  0  0
 20 21  2  0  0  0
 21 22  1  0  0  0
 21 28  1  0  0  0
 22 23  1  0  0  0
 23 24  1  0  0  0
 24 25  1  0  0  0
 25 26  1  0  0  0
 25 27  1  0  0  0
 28 29  2  0  0  0
M  END
>  <CHROM.0>
-79.87846190,-113.35006243,-80.48111944,-177.82336517

>  <CHROM.1>
107.63839488,-130.99307716,101.23017863,-76.51497500,-7.26304267,5.46651495
6.40527309,176.42586607,-178.89443177,78.98805372,68.71959628,34.19366944
77.94672160,-1.39121546,0.88158252,-1.74202620

>  <FORMUL>
      OHT    C26 H29 N1 O2

>  <HET>
 OHT  A 600      29

>  <HETNAM>
     OHT 4-HYDROXYTAMOXIFEN

>  <Name>
OHT.pdb

>  <RI>
0

>  <Rbt.Current_Directory>
/home/malgorzata/Desktop/rDOCK_IFD/Wyniki/5b_estrogen_receptor/IFD

>  <Rbt.Executable>
rbdock ($Id: //depot/dev/client3/rdock/2013.1/src/exe/rbdock.cxx#4 $)

>  <Rbt.Library>
libRbt.so (2013.1, Build901 2013/11/27)

>  <Rbt.Parameter_File>
/home/malgorzata/Desktop/rDock_2013.1_src/data/scripts/hard_docking.prm

>  <Rbt.Receptor>
cavity.prm

>  <SCORE>
-8.04085

>  <SCORE.INTER>
-5.74921

>  <SCORE.INTER.CONST>
1

>  <SCORE.INTER.POLAR>
0

>  <SCORE.INTER.REPUL>
0

>  <SCORE.INTER.ROT>
9

>  <SCORE.INTER.VDW>
-20.1492

>  <SCORE.INTER.norm>
-0.198249

>  <SCORE.INTRA>
-4.30395

>  <SCORE.INTRA.DIHEDRAL>
-7.36616

>  <SCORE.INTRA.DIHEDRAL.0>
14.7815

>  <SCORE.INTRA.POLAR>
0

>  <SCORE.INTRA.POLAR.0>
0

>  <SCORE.INTRA.REPUL>
0

>  <SCORE.INTRA.REPUL.0>
0

>  <SCORE.INTRA.VDW>
-0.620873

>  <SCORE.INTRA.VDW.0>
-0.0652974

>  <SCORE.INTRA.norm>
-0.148412

>  <SCORE.RESTR>
0

>  <SCORE.RESTR.CAVITY>
0

>  <SCORE.RESTR.norm>
0

>  <SCORE.SYSTEM>
2.01231

>  <SCORE.SYSTEM.CONST>
0

>  <SCORE.SYSTEM.DIHEDRAL>
7.77082

>  <SCORE.SYSTEM.REPUL>
0.514457

>  <SCORE.SYSTEM.VDW>
-4.44538

>  <SCORE.SYSTEM.norm>
0.0693901

>  <SCORE.heavy>
29

>  <SCORE.norm>
-0.277271

$$$$
OHT.pdb
  rDOCK(R)          3D
libRbt.so/2013.1/901 2013/11/27
 30 32  0  0  0  0  0  0  0  0999 V2000
   67.4006   40.6077   80.8941 C   0  0  0  0  0  0
   68.7268   40.4123   80.2120 C   0  0  0  0  0  0
   69.8593   40.2345   81.2019 C   0  0  0  0  0  0
   70.7461   41.4321   81.3200 C   0  0  0  0  0  0
   71.6110   41.7938   80.2655 C   0  0  0  0  0  0
   72.4019   42.9395   80.3578 C   0  0  0  0  0  0
   72.3612   43.7437   81.4798 C   0  0  0  0  0  0
   71.5252   43.4054   82.5172 C   0  0  0  0  0  0
   70.7254   42.2599   82.4359 C   0  0  0  0  0  0
   70.0424   39.0835   81.9133 C   0  0  0  0  0  0
   70.9571   38.9705   83.1083 C   0  0  0  0  0  0
   70.5308   38.3595   84.3286 C   0  0  0  0  0  0
   71.3835   38.3147   85.4410 C   0  0  0  0  0  0
   72.6694   38.8794   85.3444 C   0  0  0  0  0  0
   73.4722   38.8413   86.4451 O   0  0  0  0  0  0
   73.1026   39.4834   84.1422 C   0  0  0  0  0  0
   72.2422   39.5185   83.0521 C   0  0  0  0  0  0
   69.3701   37.8275   81.5671 C   0  0  0  0  0  0
   68.1105   37.5105   82.0699 C   0  0  0  0  0  0
   67.4580   36.3564   81.7389 C   0  0  0  0  0  0
   68.0581   35.4596   80.8697 C   0  0  0  0  0  0
   67.4606   34.3025   80.4590 O   0  0  0  0  0  0
   66.2415   33.8797   81.0622 C   0  0  0  0  0  0
   66.1272   32.4013   80.8058 C   0  0  0  0  0  0
   67.2245   31.6372   81.3330 N   0  0  0  0  0  0
   66.7676   30.6113   82.2715 C   0  0  0  0  0  0
   67.9302   30.9686   80.2339 C   0  0  0  0  0  0
   69.3305   35.7450   80.3449 C   0  0  0  0  0  0
   69.9617   36.9065   80.6921 C   0  0  0  0  0  0
   73.1544   38.4690   87.2441 H   0  0  0  0  0  0
  1  2  1  0  0  0
  2  3  1  0  0  0
  3  4  1  0  0  0
  3 10  1  0  0  0
  4  5  2  0  0  0
  4  9  1  0  0  0
  5  6  1  0  0  0
  6  7  2  0  0  0
  7  8  1  0  0  0
  8  9  2  0  0  0
 10 11  1  0  0  0
 10 18  1  0  0  0
 11 12  2  0  0  0
 11 17  1  0  0  0
 12 13  1  0  0  0
 13 14  2  0  0  0
 14 15  1  0  0  0
 14 16  1  0  0  0
 15 30  1  0  0  0
 16 17  2  0  0  0
 18 19  2  0  0  0
 18 29  1  0  0  0
 19 20  1  0  0  0
 20 21  2  0  0  0
 21 22  1  0  0  0
 21 28  1  0  0  0
 22 23  1  0  0  0
 23 24  1  0  0  0
 24 25  1  0  0  0
 25 26  1  0  0  0
 25 27  1  0  0  0
 28 29  2  0  0  0
M  END
>  <CHROM.0>
-97.50993520,-134.73296088,-152.85623271,178.74412717

>  <CHROM.1>
-105.84099386,-70.36529448,-166.16581884,131.89849870,-88.13128083,-1.74333544
-8.50376809,-158.86970535,58.81495394,122.29520616,69.73238693,37.87271963
82.00167324,0.81839433,-0.84116116,-0.44686225

>  <FORMUL>
      OHT    C26 H29 N1 O2

>  <HET>
 OHT  A 600      29

>  <HETNAM>
     OHT 4-HYDROXYTAMOXIFEN

>  <Name>
OHT.pdb

>  <RI>
0

>  <Rbt.Current_Directory>
/home/malgorzata/Desktop/rDOCK_IFD/Wyniki/5b_estrogen_receptor/IFD

>  <Rbt.Executable>
rbdock ($Id: //depot/dev/client3/rdock/2013.1/src/exe/rbdock.cxx#4 $)

>  <Rbt.Library>
libRbt.so (2013.1, Build901 2013/11/27)

>  <Rbt.Parameter_File>
/home/malgorzata/Desktop/rDock_2013.1_src/data/scripts/hard_docking.prm

>  <Rbt.Receptor>
cavity.prm

>  <SCORE>
0.421076

>  <SCORE.INTER>
0.944831

>  <SCORE.INTER.CONST>
1

>  <SCORE.INTER.POLAR>
0

>  <SCORE.INTER.REPUL>
0

>  <SCORE.INTER.ROT>
9

>  <SCORE.INTER.VDW>
-13.4552

>  <SCORE.INTER.norm>
0.0325804

>  <SCORE.INTRA>
-4.63173

>  <SCORE.INTRA.DIHEDRAL>
-3.97679

>  <SCORE.INTRA.DIHEDRAL.0>
14.7815

>  <SCORE.INTRA.POLAR>
0

>  <SCORE.INTRA.POLAR.0>
0

>  <SCORE.INTRA.REPUL>
0

>  <SCORE.INTRA.REPUL.0>
0

>  <SCORE.INTRA.VDW>
-2.64333

>  <SCORE.INTRA.VDW.0>
-0.0652974

>  <SCORE.INTRA.norm>
-0.159715

>  <SCORE.RESTR>
1.58178

>  <SCORE.RESTR.CAVITY>
1.58178

>  <SCORE.RESTR.norm>
0.054544

>  <SCORE.SYSTEM>
2.5262

>  <SCORE.SYSTEM.CONST>
0

>  <SCORE.SYSTEM.DIHEDRAL>
6.98617

>  <SCORE.SYSTEM.REPUL>
0.207829

>  <SCORE.SYSTEM.VDW>
-2.00603

>  <SCORE.SYSTEM.norm>
0.0871102

>  <SCORE.heavy>
29

>  <SCORE.norm>
0.0145199

$$$$
