REMARK  5 active torsions:
REMARK  status: ('A' for Active; 'I' for Inactive)
REMARK    1  A    between atoms: C2_22137  and  C11_22146 
REMARK    2  A    between atoms: C3_22138  and  C4_22139 
REMARK    3  A    between atoms: C5_22140  and  N1_22152 
REMARK    4  A    between atoms: C8_22143  and  S1_22161 
REMARK    5  A    between atoms: N3_22154  and  S1_22161 
ROOT
HETATM    1  C1  S58 A 701      26.559  21.967  15.797  1.00  9.00     0.044 A 
HETATM    2  C2  S58 A 701      25.343  22.266  15.263  1.00  8.39     0.084 A 
HETATM    3  C3  S58 A 701      26.304  21.586  17.217  1.00  9.72     0.174 A 
HETATM    4  N1  S58 A 701      24.376  22.080  16.225  1.00 11.18    -0.230 N 
HETATM    5  N2  S58 A 701      25.017  21.644  17.426  1.00 11.04    -0.161 NA
ENDROOT
BRANCH   4   6
HETATM    6  C5  S58 A 701      23.021  21.950  16.065  1.00 11.70     0.083 A 
HETATM    7  C6  S58 A 701      22.400  22.790  15.132  1.00 10.08     0.020 A 
HETATM    8  C7  S58 A 701      21.041  22.656  14.891  1.00 13.76     0.014 A 
HETATM    9  C8  S58 A 701      20.302  21.671  15.586  1.00 13.58     0.103 A 
HETATM   10  C9  S58 A 701      20.929  20.829  16.520  1.00 15.22     0.014 A 
HETATM   11  C10 S58 A 701      22.297  20.973  16.762  1.00 14.22     0.020 A 
BRANCH   9  12
HETATM   12  S1  S58 A 701      18.517  21.477  15.265  1.00 11.93     0.258 S 
HETATM   13  O1  S58 A 701      17.944  22.764  15.028  1.00  9.06    -0.201 OA
HETATM   14  O2  S58 A 701      17.920  20.888  16.431  1.00 10.85    -0.201 OA
BRANCH  12  15
HETATM   15  N3  S58 A 701      18.338  20.411  13.882  1.00  8.29    -0.324 N 
HETATM   16 1HN3 S58 A 701      17.954  19.521  14.003  1.00 17.00     0.169 HD
HETATM   17 2HN3 S58 A 701      18.620  20.709  12.990  1.00 17.00     0.169 HD
ENDBRANCH  12  15
ENDBRANCH   9  12
ENDBRANCH   4   6
BRANCH   2  18
HETATM   18  C11 S58 A 701      25.129  22.758  13.867  1.00  5.71     0.018 A 
HETATM   19  C12 S58 A 701      24.244  22.059  13.008  1.00  5.31     0.002 A 
HETATM   20  C13 S58 A 701      23.915  22.590  11.747  1.00  2.00     0.007 A 
HETATM   21  C14 S58 A 701      24.456  23.808  11.345  1.00  2.00     0.035 A 
HETATM   22  C15 S58 A 701      25.353  24.489  12.175  1.00  2.25     0.007 A 
HETATM   23 BR1  S58 A 701      23.855  24.597   9.788  1.00  4.05    -0.049 Br
HETATM   24  C16 S58 A 701      25.692  23.964  13.445  1.00  2.30     0.002 A 
ENDBRANCH   2  18
BRANCH   3  25
HETATM   25  C4  S58 A 701      27.299  21.256  18.290  1.00  8.58     0.437 C 
HETATM   26  F1  S58 A 701      28.029  20.177  17.909  1.00  2.57    -0.164 F 
HETATM   27  F2  S58 A 701      26.663  21.040  19.452  1.00  8.03    -0.164 F 
HETATM   28  F3  S58 A 701      28.118  22.304  18.427  1.00 10.66    -0.164 F 
ENDBRANCH   3  25
TORSDOF 5
