REMARK  5 active torsions:
REMARK  status: ('A' for Active; 'I' for Inactive)
REMARK    1  A    between atoms: C2_22137  and  C11_22146 
REMARK    2  A    between atoms: C3_22138  and  C4_22139 
REMARK    3  A    between atoms: C5_22140  and  N1_22152 
REMARK    4  A    between atoms: C8_22143  and  S1_22161 
REMARK    5  A    between atoms: N3_22154  and  S1_22161 
ROOT
HETATM    1  C1  S58 A 701      26.577  21.952  15.897  1.00  9.00     0.044 A 
HETATM    2  C2  S58 A 701      25.361  22.246  15.360  1.00  8.39     0.084 A 
HETATM    3  C3  S58 A 701      26.320  21.568  17.316  1.00  9.72     0.174 A 
HETATM    4  N1  S58 A 701      24.393  22.056  16.319  1.00 11.18    -0.230 N 
HETATM    5  N2  S58 A 701      25.032  21.621  17.522  1.00 11.04    -0.161 NA
ENDROOT
BRANCH   4   6
HETATM    6  C5  S58 A 701      23.038  21.919  16.156  1.00 11.70     0.083 A 
HETATM    7  C6  S58 A 701      22.398  22.833  15.310  1.00 10.08     0.020 A 
HETATM    8  C7  S58 A 701      21.039  22.701  15.065  1.00 13.76     0.014 A 
HETATM    9  C8  S58 A 701      20.321  21.644  15.670  1.00 13.58     0.103 A 
HETATM   10  C9  S58 A 701      20.967  20.728  16.517  1.00 15.22     0.014 A 
HETATM   11  C10 S58 A 701      22.334  20.870  16.763  1.00 14.22     0.020 A 
BRANCH   9  12
HETATM   12  S1  S58 A 701      18.537  21.452  15.343  1.00 11.93     0.258 S 
HETATM   13  O1  S58 A 701      17.987  22.726  14.998  1.00  9.06    -0.201 OA
HETATM   14  O2  S58 A 701      17.916  20.966  16.544  1.00 10.85    -0.201 OA
BRANCH  12  15
HETATM   15  N3  S58 A 701      18.355  20.285  14.046  1.00  8.29    -0.324 N 
HETATM   16 1HN3 S58 A 701      18.664  20.508  13.146  1.00 17.00     0.169 HD
HETATM   17 2HN3 S58 A 701      17.948  19.409  14.223  1.00 17.00     0.169 HD
ENDBRANCH  12  15
ENDBRANCH   9  12
ENDBRANCH   4   6
BRANCH   2  18
HETATM   18  C11 S58 A 701      25.148  22.739  13.964  1.00  5.71     0.018 A 
HETATM   19  C12 S58 A 701      24.236  22.061  13.116  1.00  5.31     0.002 A 
HETATM   20  C13 S58 A 701      23.910  22.596  11.855  1.00  2.00     0.007 A 
HETATM   21  C14 S58 A 701      24.482  23.797  11.444  1.00  2.00     0.035 A 
HETATM   22  C15 S58 A 701      25.405  24.456  12.263  1.00  2.25     0.007 A 
HETATM   23 BR1  S58 A 701      23.888  24.596   9.889  1.00  4.05    -0.049 Br
HETATM   24  C16 S58 A 701      25.741  23.927  13.532  1.00  2.30     0.002 A 
ENDBRANCH   2  18
BRANCH   3  25
HETATM   25  C4  S58 A 701      27.314  21.242  18.390  1.00  8.58     0.437 C 
HETATM   26  F1  S58 A 701      28.092  22.327  18.628  1.00  2.57    -0.164 F 
HETATM   27  F2  S58 A 701      28.045  20.176  18.028  1.00  8.03    -0.164 F 
HETATM   28  F3  S58 A 701      26.633  20.947  19.504  1.00 10.66    -0.164 F 
ENDBRANCH   3  25
TORSDOF 5
