REMARK  5 active torsions:
REMARK  status: ('A' for Active; 'I' for Inactive)
REMARK    1  A    between atoms: C2_22137  and  C11_22146 
REMARK    2  A    between atoms: C3_22138  and  C4_22139 
REMARK    3  A    between atoms: C5_22140  and  N1_22152 
REMARK    4  A    between atoms: C8_22143  and  S1_22161 
REMARK    5  A    between atoms: N3_22154  and  S1_22161 
ROOT
HETATM    1  C1  S58 A 701      24.683  21.353  17.386  1.00  9.00     0.044 A 
HETATM    2  C2  S58 A 701      24.050  21.660  16.220  1.00  8.39     0.084 A 
HETATM    3  C3  S58 A 701      26.139  21.301  17.064  1.00  9.72     0.174 A 
HETATM    4  N1  S58 A 701      24.992  21.817  15.230  1.00 11.18    -0.230 N 
HETATM    5  N2  S58 A 701      26.284  21.597  15.801  1.00 11.04    -0.161 NA
ENDROOT
BRANCH   4   6
HETATM    6  C5  S58 A 701      24.860  22.426  14.008  1.00 11.70     0.083 A 
HETATM    7  C6  S58 A 701      25.751  23.463  13.707  1.00 10.08     0.020 A 
HETATM    8  C7  S58 A 701      25.696  24.070  12.461  1.00 13.76     0.014 A 
HETATM    9  C8  S58 A 701      24.745  23.630  11.511  1.00 13.58     0.103 A 
HETATM   10  C9  S58 A 701      23.853  22.588  11.817  1.00 15.22     0.014 A 
HETATM   11  C10 S58 A 701      23.911  21.985  13.075  1.00 14.22     0.020 A 
BRANCH   9  12
HETATM   12  S1  S58 A 701      24.674  24.412   9.865  1.00 11.93     0.258 S 
HETATM   13  O1  S58 A 701      25.988  24.434   9.304  1.00  9.06    -0.201 OA
HETATM   14  O2  S58 A 701      24.197  25.756  10.033  1.00 10.85    -0.201 OA
BRANCH  12  15
HETATM   15  N3  S58 A 701      23.555  23.484   8.883  1.00  8.29    -0.324 N 
HETATM   16 1HN3 S58 A 701      22.949  23.946   8.271  1.00 17.00     0.169 HD
HETATM   17 2HN3 S58 A 701      23.538  22.504   8.946  1.00 17.00     0.169 HD
ENDBRANCH  12  15
ENDBRANCH   9  12
ENDBRANCH   4   6
BRANCH   2  18
HETATM   18  C11 S58 A 701      22.566  21.758  16.062  1.00  5.71     0.018 A 
HETATM   19  C12 S58 A 701      22.021  22.706  15.159  1.00  5.31     0.002 A 
HETATM   20  C13 S58 A 701      20.640  22.710  14.886  1.00  2.00     0.007 A 
HETATM   21  C14 S58 A 701      19.809  21.777  15.500  1.00  2.00     0.035 A 
HETATM   22  C15 S58 A 701      20.336  20.859  16.415  1.00  2.25     0.007 A 
HETATM   23 BR1  S58 A 701      18.043  21.653  14.975  1.00  4.05    -0.049 Br
HETATM   24  C16 S58 A 701      21.722  20.846  16.699  1.00  2.30     0.002 A 
ENDBRANCH   2  18
BRANCH   3  25
HETATM   25  C4  S58 A 701      27.280  20.914  17.956  1.00  8.58     0.437 C 
HETATM   26  F1  S58 A 701      28.004  22.018  18.265  1.00  2.57    -0.164 F 
HETATM   27  F2  S58 A 701      28.033  19.978  17.356  1.00  8.03    -0.164 F 
HETATM   28  F3  S58 A 701      26.768  20.405  19.083  1.00 10.66    -0.164 F 
ENDBRANCH   3  25
TORSDOF 5
