REMARK  5 active torsions:
REMARK  status: ('A' for Active; 'I' for Inactive)
REMARK    1  A    between atoms: C2_22137  and  C11_22146 
REMARK    2  A    between atoms: C3_22138  and  C4_22139 
REMARK    3  A    between atoms: C5_22140  and  N1_22152 
REMARK    4  A    between atoms: C8_22143  and  S1_22161 
REMARK    5  A    between atoms: N3_22154  and  S1_22161 
ROOT
HETATM    1  C1  S58 A 701      24.776  21.219  17.519  1.00  9.00     0.044 A 
HETATM    2  C2  S58 A 701      24.196  21.592  16.344  1.00  8.39     0.084 A 
HETATM    3  C3  S58 A 701      26.242  21.148  17.251  1.00  9.72     0.174 A 
HETATM    4  N1  S58 A 701      25.180  21.771  15.399  1.00 11.18    -0.230 N 
HETATM    5  N2  S58 A 701      26.443  21.496  16.009  1.00 11.04    -0.161 NA
ENDROOT
BRANCH   4   6
HETATM    6  C5  S58 A 701      25.109  22.435  14.202  1.00 11.70     0.083 A 
HETATM    7  C6  S58 A 701      24.303  21.874  13.203  1.00 10.08     0.020 A 
HETATM    8  C7  S58 A 701      24.151  22.539  11.995  1.00 13.76     0.014 A 
HETATM    9  C8  S58 A 701      24.807  23.774  11.790  1.00 13.58     0.103 A 
HETATM   10  C9  S58 A 701      25.614  24.335  12.795  1.00 15.22     0.014 A 
HETATM   11  C10 S58 A 701      25.767  23.657  14.007  1.00 14.22     0.020 A 
BRANCH   9  12
HETATM   12  S1  S58 A 701      24.602  24.663  10.211  1.00 11.93     0.258 S 
HETATM   13  O1  S58 A 701      25.826  24.597   9.477  1.00  9.06    -0.201 OA
HETATM   14  O2  S58 A 701      24.291  26.033  10.511  1.00 10.85    -0.201 OA
BRANCH  12  15
HETATM   15  N3  S58 A 701      23.274  23.910   9.345  1.00  8.29    -0.324 N 
HETATM   16 1HN3 S58 A 701      22.590  24.468   8.925  1.00 17.00     0.169 HD
HETATM   17 2HN3 S58 A 701      23.218  22.932   9.281  1.00 17.00     0.169 HD
ENDBRANCH  12  15
ENDBRANCH   9  12
ENDBRANCH   4   6
BRANCH   2  18
HETATM   18  C11 S58 A 701      22.722  21.730  16.134  1.00  5.71     0.018 A 
HETATM   19  C12 S58 A 701      22.236  22.686  15.205  1.00  5.31     0.002 A 
HETATM   20  C13 S58 A 701      20.866  22.727  14.884  1.00  2.00     0.007 A 
HETATM   21  C14 S58 A 701      19.988  21.823  15.476  1.00  2.00     0.035 A 
HETATM   22  C15 S58 A 701      20.456  20.897  16.415  1.00  2.25     0.007 A 
HETATM   23 BR1  S58 A 701      18.239  21.744  14.890  1.00  4.05    -0.049 Br
HETATM   24  C16 S58 A 701      21.831  20.848  16.747  1.00  2.30     0.002 A 
ENDBRANCH   2  18
BRANCH   3  25
HETATM   25  C4  S58 A 701      27.339  20.696  18.168  1.00  8.58     0.437 C 
HETATM   26  F1  S58 A 701      28.125  21.756  18.485  1.00  2.57    -0.164 F 
HETATM   27  F2  S58 A 701      28.042  19.711  17.589  1.00  8.03    -0.164 F 
HETATM   28  F3  S58 A 701      26.774  20.230  19.288  1.00 10.66    -0.164 F 
ENDBRANCH   3  25
TORSDOF 5
