REMARK  5 active torsions:
REMARK  status: ('A' for Active; 'I' for Inactive)
REMARK    1  A    between atoms: C2_22137  and  C11_22146 
REMARK    2  A    between atoms: C3_22138  and  C4_22139 
REMARK    3  A    between atoms: C5_22140  and  N1_22152 
REMARK    4  A    between atoms: C8_22143  and  S1_22161 
REMARK    5  A    between atoms: N3_22154  and  S1_22161 
ROOT
HETATM    1  C1  S58 A 701      26.563  21.932  15.897  1.00  9.00     0.044 A 
HETATM    2  C2  S58 A 701      25.350  22.234  15.356  1.00  8.39     0.084 A 
HETATM    3  C3  S58 A 701      26.299  21.543  17.313  1.00  9.72     0.174 A 
HETATM    4  N1  S58 A 701      24.377  22.043  16.311  1.00 11.18    -0.230 N 
HETATM    5  N2  S58 A 701      25.010  21.600  17.514  1.00 11.04    -0.161 NA
ENDROOT
BRANCH   4   6
HETATM    6  C5  S58 A 701      23.023  21.913  16.142  1.00 11.70     0.083 A 
HETATM    7  C6  S58 A 701      22.394  22.815  15.274  1.00 10.08     0.020 A 
HETATM    8  C7  S58 A 701      21.036  22.688  15.023  1.00 13.76     0.014 A 
HETATM    9  C8  S58 A 701      20.306  21.647  15.643  1.00 13.58     0.103 A 
HETATM   10  C9  S58 A 701      20.940  20.743  16.512  1.00 15.22     0.014 A 
HETATM   11  C10 S58 A 701      22.308  20.880  16.764  1.00 14.22     0.020 A 
BRANCH   9  12
HETATM   12  S1  S58 A 701      18.523  21.462  15.309  1.00 11.93     0.258 S 
HETATM   13  O1  S58 A 701      17.956  22.754  15.080  1.00  9.06    -0.201 OA
HETATM   14  O2  S58 A 701      17.915  20.865  16.464  1.00 10.85    -0.201 OA
BRANCH  12  15
HETATM   15  N3  S58 A 701      18.349  20.411  13.914  1.00  8.29    -0.324 N 
HETATM   16 1HN3 S58 A 701      18.682  20.703  13.043  1.00 17.00     0.169 HD
HETATM   17 2HN3 S58 A 701      17.922  19.532  14.008  1.00 17.00     0.169 HD
ENDBRANCH  12  15
ENDBRANCH   9  12
ENDBRANCH   4   6
BRANCH   2  18
HETATM   18  C11 S58 A 701      25.144  22.734  13.963  1.00  5.71     0.018 A 
HETATM   19  C12 S58 A 701      24.255  22.047  13.098  1.00  5.31     0.002 A 
HETATM   20  C13 S58 A 701      23.935  22.587  11.838  1.00  2.00     0.007 A 
HETATM   21  C14 S58 A 701      24.490  23.802  11.443  1.00  2.00     0.035 A 
HETATM   22  C15 S58 A 701      25.391  24.469  12.278  1.00  2.25     0.007 A 
HETATM   23 BR1  S58 A 701      23.901  24.603   9.887  1.00  4.05    -0.049 Br
HETATM   24  C16 S58 A 701      25.721  23.936  13.547  1.00  2.30     0.002 A 
ENDBRANCH   2  18
BRANCH   3  25
HETATM   25  C4  S58 A 701      27.286  21.207  18.390  1.00  8.58     0.437 C 
HETATM   26  F1  S58 A 701      28.041  22.300  18.665  1.00  2.57    -0.164 F 
HETATM   27  F2  S58 A 701      28.041  20.164  18.009  1.00  8.03    -0.164 F 
HETATM   28  F3  S58 A 701      26.600  20.871  19.488  1.00 10.66    -0.164 F 
ENDBRANCH   3  25
TORSDOF 5
