REMARK  5 active torsions:
REMARK  status: ('A' for Active; 'I' for Inactive)
REMARK    1  A    between atoms: C2_22137  and  C11_22146 
REMARK    2  A    between atoms: C3_22138  and  C4_22139 
REMARK    3  A    between atoms: C5_22140  and  N1_22152 
REMARK    4  A    between atoms: C8_22143  and  S1_22161 
REMARK    5  A    between atoms: N3_22154  and  S1_22161 
ROOT
HETATM    1  C1  S58 A 701      26.556  21.965  15.781  1.00  9.00     0.044 A 
HETATM    2  C2  S58 A 701      25.336  22.260  15.251  1.00  8.39     0.084 A 
HETATM    3  C3  S58 A 701      26.310  21.595  17.205  1.00  9.72     0.174 A 
HETATM    4  N1  S58 A 701      24.376  22.082  16.222  1.00 11.18    -0.230 N 
HETATM    5  N2  S58 A 701      25.025  21.655  17.422  1.00 11.04    -0.161 NA
ENDROOT
BRANCH   4   6
HETATM    6  C5  S58 A 701      23.020  21.951  16.072  1.00 11.70     0.083 A 
HETATM    7  C6  S58 A 701      22.390  22.797  15.150  1.00 10.08     0.020 A 
HETATM    8  C7  S58 A 701      21.029  22.662  14.919  1.00 13.76     0.014 A 
HETATM    9  C8  S58 A 701      20.297  21.671  15.613  1.00 13.58     0.103 A 
HETATM   10  C9  S58 A 701      20.933  20.823  16.536  1.00 15.22     0.014 A 
HETATM   11  C10 S58 A 701      22.303  20.967  16.768  1.00 14.22     0.020 A 
BRANCH   9  12
HETATM   12  S1  S58 A 701      18.510  21.477  15.306  1.00 11.93     0.258 S 
HETATM   13  O1  S58 A 701      17.942  22.759  15.036  1.00  9.06    -0.201 OA
HETATM   14  O2  S58 A 701      17.915  20.922  16.489  1.00 10.85    -0.201 OA
BRANCH  12  15
HETATM   15  N3  S58 A 701      18.320  20.375  13.953  1.00  8.29    -0.324 N 
HETATM   16 1HN3 S58 A 701      18.596  20.654  13.058  1.00 17.00     0.169 HD
HETATM   17 2HN3 S58 A 701      17.940  19.481  14.094  1.00 17.00     0.169 HD
ENDBRANCH  12  15
ENDBRANCH   9  12
ENDBRANCH   4   6
BRANCH   2  18
HETATM   18  C11 S58 A 701      25.113  22.741  13.854  1.00  5.71     0.018 A 
HETATM   19  C12 S58 A 701      24.242  22.020  12.998  1.00  5.31     0.002 A 
HETATM   20  C13 S58 A 701      23.903  22.539  11.734  1.00  2.00     0.007 A 
HETATM   21  C14 S58 A 701      24.420  23.765  11.326  1.00  2.00     0.035 A 
HETATM   22  C15 S58 A 701      25.304  24.467  12.153  1.00  2.25     0.007 A 
HETATM   23 BR1  S58 A 701      23.804  24.534   9.765  1.00  4.05    -0.049 Br
HETATM   24  C16 S58 A 701      25.653  23.955  13.425  1.00  2.30     0.002 A 
ENDBRANCH   2  18
BRANCH   3  25
HETATM   25  C4  S58 A 701      27.312  21.274  18.273  1.00  8.58     0.437 C 
HETATM   26  F1  S58 A 701      28.137  22.335  18.450  1.00  2.57    -0.164 F 
HETATM   27  F2  S58 A 701      27.993  20.165  17.943  1.00  8.03    -0.164 F 
HETATM   28  F3  S58 A 701      26.644  21.053  19.411  1.00 10.66    -0.164 F 
ENDBRANCH   3  25
TORSDOF 5
