REMARK  5 active torsions:
REMARK  status: ('A' for Active; 'I' for Inactive)
REMARK    1  A    between atoms: C2_22137  and  C11_22146 
REMARK    2  A    between atoms: C3_22138  and  C4_22139 
REMARK    3  A    between atoms: C5_22140  and  N1_22152 
REMARK    4  A    between atoms: C8_22143  and  S1_22161 
REMARK    5  A    between atoms: N3_22154  and  S1_22161 
ROOT
HETATM    1  C1  S58 A 701      26.560  21.986  15.892  1.00  9.00     0.044 A 
HETATM    2  C2  S58 A 701      25.366  22.269  15.302  1.00  8.39     0.084 A 
HETATM    3  C3  S58 A 701      26.243  21.584  17.294  1.00  9.72     0.174 A 
HETATM    4  N1  S58 A 701      24.357  22.056  16.213  1.00 11.18    -0.230 N 
HETATM    5  N2  S58 A 701      24.946  21.617  17.439  1.00 11.04    -0.161 NA
ENDROOT
BRANCH   4   6
HETATM    6  C5  S58 A 701      23.014  21.903  15.985  1.00 11.70     0.083 A 
HETATM    7  C6  S58 A 701      22.335  20.954  16.759  1.00 10.08     0.020 A 
HETATM    8  C7  S58 A 701      20.964  20.805  16.608  1.00 13.76     0.014 A 
HETATM    9  C8  S58 A 701      20.271  21.614  15.679  1.00 13.58     0.103 A 
HETATM   10  C9  S58 A 701      20.956  22.566  14.905  1.00 15.22     0.014 A 
HETATM   11  C10 S58 A 701      22.337  22.708  15.058  1.00 14.22     0.020 A 
BRANCH   9  12
HETATM   12  S1  S58 A 701      18.467  21.435  15.483  1.00 11.93     0.258 S 
HETATM   13  O1  S58 A 701      17.920  22.681  15.047  1.00  9.06    -0.201 OA
HETATM   14  O2  S58 A 701      17.916  21.085  16.762  1.00 10.85    -0.201 OA
BRANCH  12  15
HETATM   15  N3  S58 A 701      18.183  20.149  14.322  1.00  8.29    -0.324 N 
HETATM   16 1HN3 S58 A 701      17.924  20.371  13.407  1.00 17.00     0.169 HD
HETATM   17 2HN3 S58 A 701      18.286  19.211  14.590  1.00 17.00     0.169 HD
ENDBRANCH  12  15
ENDBRANCH   9  12
ENDBRANCH   4   6
BRANCH   2  18
HETATM   18  C11 S58 A 701      25.212  22.773  13.903  1.00  5.71     0.018 A 
HETATM   19  C12 S58 A 701      24.352  22.091  13.005  1.00  5.31     0.002 A 
HETATM   20  C13 S58 A 701      24.078  22.635  11.736  1.00  2.00     0.007 A 
HETATM   21  C14 S58 A 701      24.649  23.849  11.364  1.00  2.00     0.035 A 
HETATM   22  C15 S58 A 701      25.522  24.512  12.233  1.00  2.25     0.007 A 
HETATM   23 BR1  S58 A 701      24.118  24.656   9.791  1.00  4.05    -0.049 Br
HETATM   24  C16 S58 A 701      25.806  23.975  13.511  1.00  2.30     0.002 A 
ENDBRANCH   2  18
BRANCH   3  25
HETATM   25  C4  S58 A 701      27.189  21.259  18.410  1.00  8.58     0.437 C 
HETATM   26  F1  S58 A 701      28.071  22.279  18.564  1.00  2.57    -0.164 F 
HETATM   27  F2  S58 A 701      27.813  20.097  18.158  1.00  8.03    -0.164 F 
HETATM   28  F3  S58 A 701      26.474  21.135  19.534  1.00 10.66    -0.164 F 
ENDBRANCH   3  25
TORSDOF 5
