REMARK  5 active torsions:
REMARK  status: ('A' for Active; 'I' for Inactive)
REMARK    1  A    between atoms: C2_22137  and  C11_22146 
REMARK    2  A    between atoms: C3_22138  and  C4_22139 
REMARK    3  A    between atoms: C5_22140  and  N1_22152 
REMARK    4  A    between atoms: C8_22143  and  S1_22161 
REMARK    5  A    between atoms: N3_22154  and  S1_22161 
ROOT
HETATM    1  C1  S58 A 701      24.735  21.194  17.525  1.00  9.00     0.044 A 
HETATM    2  C2  S58 A 701      24.164  21.572  16.348  1.00  8.39     0.084 A 
HETATM    3  C3  S58 A 701      26.201  21.107  17.265  1.00  9.72     0.174 A 
HETATM    4  N1  S58 A 701      25.155  21.740  15.407  1.00 11.18    -0.230 N 
HETATM    5  N2  S58 A 701      26.412  21.452  16.024  1.00 11.04    -0.161 NA
ENDROOT
BRANCH   4   6
HETATM    6  C5  S58 A 701      25.097  22.404  14.209  1.00 11.70     0.083 A 
HETATM    7  C6  S58 A 701      24.295  21.848  13.205  1.00 10.08     0.020 A 
HETATM    8  C7  S58 A 701      24.155  22.513  11.996  1.00 13.76     0.014 A 
HETATM    9  C8  S58 A 701      24.821  23.744  11.795  1.00 13.58     0.103 A 
HETATM   10  C9  S58 A 701      25.624  24.300  12.806  1.00 15.22     0.014 A 
HETATM   11  C10 S58 A 701      25.764  23.622  14.019  1.00 14.22     0.020 A 
BRANCH   9  12
HETATM   12  S1  S58 A 701      24.633  24.633  10.214  1.00 11.93     0.258 S 
HETATM   13  O1  S58 A 701      25.874  24.593   9.507  1.00  9.06    -0.201 OA
HETATM   14  O2  S58 A 701      24.289  25.996  10.511  1.00 10.85    -0.201 OA
BRANCH  12  15
HETATM   15  N3  S58 A 701      23.339  23.857   9.318  1.00  8.29    -0.324 N 
HETATM   16 1HN3 S58 A 701      22.680  24.404   8.847  1.00 17.00     0.169 HD
HETATM   17 2HN3 S58 A 701      23.279  22.878   9.286  1.00 17.00     0.169 HD
ENDBRANCH  12  15
ENDBRANCH   9  12
ENDBRANCH   4   6
BRANCH   2  18
HETATM   18  C11 S58 A 701      22.693  21.726  16.130  1.00  5.71     0.018 A 
HETATM   19  C12 S58 A 701      22.221  22.691  15.203  1.00  5.31     0.002 A 
HETATM   20  C13 S58 A 701      20.854  22.746  14.875  1.00  2.00     0.007 A 
HETATM   21  C14 S58 A 701      19.963  21.848  15.457  1.00  2.00     0.035 A 
HETATM   22  C15 S58 A 701      20.417  20.914  16.395  1.00  2.25     0.007 A 
HETATM   23 BR1  S58 A 701      18.217  21.789  14.862  1.00  4.05    -0.049 Br
HETATM   24  C16 S58 A 701      21.790  20.849  16.734  1.00  2.30     0.002 A 
ENDBRANCH   2  18
BRANCH   3  25
HETATM   25  C4  S58 A 701      27.289  20.645  18.188  1.00  8.58     0.437 C 
HETATM   26  F1  S58 A 701      28.025  21.712  18.586  1.00  2.57    -0.164 F 
HETATM   27  F2  S58 A 701      28.045  19.719  17.576  1.00  8.03    -0.164 F 
HETATM   28  F3  S58 A 701      26.711  20.096  19.262  1.00 10.66    -0.164 F 
ENDBRANCH   3  25
TORSDOF 5
