REMARK  5 active torsions:
REMARK  status: ('A' for Active; 'I' for Inactive)
REMARK    1  A    between atoms: C2_22137  and  C11_22146 
REMARK    2  A    between atoms: C3_22138  and  C4_22139 
REMARK    3  A    between atoms: C5_22140  and  N1_22152 
REMARK    4  A    between atoms: C8_22143  and  S1_22161 
REMARK    5  A    between atoms: N3_22154  and  S1_22161 
ROOT
HETATM    1  C1  S58 A 701      24.840  21.240  17.541  1.00  9.00     0.044 A 
HETATM    2  C2  S58 A 701      24.262  21.593  16.359  1.00  8.39     0.084 A 
HETATM    3  C3  S58 A 701      26.306  21.165  17.279  1.00  9.72     0.174 A 
HETATM    4  N1  S58 A 701      25.249  21.757  15.414  1.00 11.18    -0.230 N 
HETATM    5  N2  S58 A 701      26.511  21.493  16.032  1.00 11.04    -0.161 NA
ENDROOT
BRANCH   4   6
HETATM    6  C5  S58 A 701      25.181  22.401  14.205  1.00 11.70     0.083 A 
HETATM    7  C6  S58 A 701      24.286  21.892  13.255  1.00 10.08     0.020 A 
HETATM    8  C7  S58 A 701      24.137  22.544  12.040  1.00 13.76     0.014 A 
HETATM    9  C8  S58 A 701      24.886  23.715  11.779  1.00 13.58     0.103 A 
HETATM   10  C9  S58 A 701      25.781  24.223  12.735  1.00 15.22     0.014 A 
HETATM   11  C10 S58 A 701      25.930  23.559  13.955  1.00 14.22     0.020 A 
BRANCH   9  12
HETATM   12  S1  S58 A 701      24.686  24.587  10.190  1.00 11.93     0.258 S 
HETATM   13  O1  S58 A 701      25.936  24.587   9.499  1.00  9.06    -0.201 OA
HETATM   14  O2  S58 A 701      24.288  25.937  10.473  1.00 10.85    -0.201 OA
BRANCH  12  15
HETATM   15  N3  S58 A 701      23.433  23.758   9.282  1.00  8.29    -0.324 N 
HETATM   16 1HN3 S58 A 701      22.764  24.278   8.794  1.00 17.00     0.169 HD
HETATM   17 2HN3 S58 A 701      23.405  22.777   9.262  1.00 17.00     0.169 HD
ENDBRANCH  12  15
ENDBRANCH   9  12
ENDBRANCH   4   6
BRANCH   2  18
HETATM   18  C11 S58 A 701      22.789  21.727  16.142  1.00  5.71     0.018 A 
HETATM   19  C12 S58 A 701      22.304  22.678  15.208  1.00  5.31     0.002 A 
HETATM   20  C13 S58 A 701      20.936  22.714  14.881  1.00  2.00     0.007 A 
HETATM   21  C14 S58 A 701      20.057  21.811  15.474  1.00  2.00     0.035 A 
HETATM   22  C15 S58 A 701      20.524  20.891  16.419  1.00  2.25     0.007 A 
HETATM   23 BR1  S58 A 701      18.311  21.725  14.882  1.00  4.05    -0.049 Br
HETATM   24  C16 S58 A 701      21.897  20.845  16.756  1.00  2.30     0.002 A 
ENDBRANCH   2  18
BRANCH   3  25
HETATM   25  C4  S58 A 701      27.401  20.729  18.206  1.00  8.58     0.437 C 
HETATM   26  F1  S58 A 701      28.180  21.796  18.515  1.00  2.57    -0.164 F 
HETATM   27  F2  S58 A 701      28.113  19.741  17.641  1.00  8.03    -0.164 F 
HETATM   28  F3  S58 A 701      26.833  20.272  19.327  1.00 10.66    -0.164 F 
ENDBRANCH   3  25
TORSDOF 5
