OHT.pdb
  rDOCK(R)          3D
libRbt.so/2013.1/901 2013/11/27
 30 32  0  0  0  0  0  0  0  0999 V2000
   66.6843   32.7105   69.4447 C   0  0  0  0  0  0
   65.5997   33.1567   70.3864 C   0  0  0  0  0  0
   66.0883   33.2563   71.8166 C   0  0  0  0  0  0
   65.8971   32.0005   72.6046 C   0  0  0  0  0  0
   66.9582   31.0847   72.7676 C   0  0  0  0  0  0
   66.7923   29.9374   73.5440 C   0  0  0  0  0  0
   65.5898   29.6681   74.1676 C   0  0  0  0  0  0
   64.5450   30.5488   74.0184 C   0  0  0  0  0  0
   64.6995   31.7041   73.2439 C   0  0  0  0  0  0
   66.6488   34.3923   72.3266 C   0  0  0  0  0  0
   66.9983   35.6029   71.4961 C   0  0  0  0  0  0
   68.0509   35.5750   70.5289 C   0  0  0  0  0  0
   68.3894   36.7292   69.8080 C   0  0  0  0  0  0
   67.6796   37.9212   70.0464 C   0  0  0  0  0  0
   68.0403   39.0346   69.3479 O   0  0  0  0  0  0
   66.6351   37.9599   70.9980 C   0  0  0  0  0  0
   66.3162   36.8058   71.7025 C   0  0  0  0  0  0
   66.9832   34.5373   73.7466 C   0  0  0  0  0  0
   66.1383   35.2023   74.6319 C   0  0  0  0  0  0
   66.4214   35.3258   75.9630 C   0  0  0  0  0  0
   67.5876   34.7717   76.4658 C   0  0  0  0  0  0
   67.9280   34.8176   77.7874 O   0  0  0  0  0  0
   66.9896   34.4069   78.7773 C   0  0  0  0  0  0
   67.7055   34.4726   80.0992 C   0  0  0  0  0  0
   68.0509   35.8080   80.5032 N   0  0  0  0  0  0
   67.7491   36.0407   81.9164 C   0  0  0  0  0  0
   69.4879   36.0260   80.3015 C   0  0  0  0  0  0
   68.4658   34.0958   75.6010 C   0  0  0  0  0  0
   68.1591   33.9865   74.2737 C   0  0  0  0  0  0
   67.3868   39.5496   68.9170 H   0  0  0  0  0  0
  1  2  1  0  0  0
  2  3  1  0  0  0
  3  4  1  0  0  0
  3 10  1  0  0  0
  4  5  2  0  0  0
  4  9  1  0  0  0
  5  6  1  0  0  0
  6  7  2  0  0  0
  7  8  1  0  0  0
  8  9  2  0  0  0
 10 11  1  0  0  0
 10 18  1  0  0  0
 11 12  2  0  0  0
 11 17  1  0  0  0
 12 13  1  0  0  0
 13 14  2  0  0  0
 14 15  1  0  0  0
 14 16  1  0  0  0
 15 30  1  0  0  0
 16 17  2  0  0  0
 18 19  2  0  0  0
 18 29  1  0  0  0
 19 20  1  0  0  0
 20 21  2  0  0  0
 21 22  1  0  0  0
 21 28  1  0  0  0
 22 23  1  0  0  0
 23 24  1  0  0  0
 24 25  1  0  0  0
 25 26  1  0  0  0
 25 27  1  0  0  0
 28 29  2  0  0  0
M  END
>  <CHROM.0>
-96.97234091,-58.97153699,-117.35938321,-106.84029217

>  <CHROM.1>
-91.44485593,97.60957422,-7.78830496,-68.36442772,-98.29395669,131.24218961
50.63066972,175.53090038,66.85138761,135.66033896,67.04098514,34.45268513
74.15749456,1.92054729,-1.24468089,-1.23339430

>  <FORMUL>
      OHT    C26 H29 N1 O2

>  <HET>
 OHT  A 600      29

>  <HETNAM>
     OHT 4-HYDROXYTAMOXIFEN

>  <Name>
OHT.pdb

>  <RI>
0

>  <Rbt.Current_Directory>
/home/malgorzata/Desktop/rDOCK_IFD/Wyniki/5a_estrogen_receptor

>  <Rbt.Executable>
rbdock ($Id: //depot/dev/client3/rdock/2013.1/src/exe/rbdock.cxx#4 $)

>  <Rbt.Library>
libRbt.so (2013.1, Build901 2013/11/27)

>  <Rbt.Parameter_File>
/home/malgorzata/Desktop/rDock_2013.1_src/data/scripts/soft_docking.prm

>  <Rbt.Receptor>
cavity.prm

>  <SCORE>
-84.2479

>  <SCORE.INTER>
-22.2868

>  <SCORE.INTER.CONST>
1

>  <SCORE.INTER.POLAR>
-0.99053

>  <SCORE.INTER.REPUL>
0.0967245

>  <SCORE.INTER.ROT>
9

>  <SCORE.INTER.VDW>
-33.8026

>  <SCORE.INTER.norm>
-0.768509

>  <SCORE.INTRA>
-4.16118

>  <SCORE.INTRA.DIHEDRAL>
0.907586

>  <SCORE.INTRA.DIHEDRAL.0>
14.7815

>  <SCORE.INTRA.POLAR>
0

>  <SCORE.INTRA.POLAR.0>
0

>  <SCORE.INTRA.REPUL>
0

>  <SCORE.INTRA.REPUL.0>
0

>  <SCORE.INTRA.VDW>
-4.3427

>  <SCORE.INTRA.VDW.0>
-0.0652974

>  <SCORE.INTRA.norm>
-0.143489

>  <SCORE.RESTR>
1.17795

>  <SCORE.RESTR.CAVITY>
0.23559

>  <SCORE.RESTR.norm>
0.040619

>  <SCORE.SYSTEM>
-58.9779

>  <SCORE.SYSTEM.CONST>
0

>  <SCORE.SYSTEM.DIHEDRAL>
5.31458

>  <SCORE.SYSTEM.POLAR>
-0.280524

>  <SCORE.SYSTEM.REPUL>
0.0686738

>  <SCORE.SYSTEM.VDW>
-61.0248

>  <SCORE.SYSTEM.norm>
-2.03372

>  <SCORE.heavy>
29

>  <SCORE.norm>
-2.9051

$$$$
OHT.pdb
  rDOCK(R)          3D
libRbt.so/2013.1/901 2013/11/27
 30 32  0  0  0  0  0  0  0  0999 V2000
   65.9774   34.5094   68.7444 C   0  0  0  0  0  0
   66.6254   33.3801   69.4974 C   0  0  0  0  0  0
   66.6017   33.6025   70.9955 C   0  0  0  0  0  0
   65.7901   32.5912   71.7391 C   0  0  0  0  0  0
   66.4156   31.5190   72.4101 C   0  0  0  0  0  0
   65.6604   30.6041   73.1444 C   0  0  0  0  0  0
   64.2871   30.7218   73.2304 C   0  0  0  0  0  0
   63.6611   31.7595   72.5817 C   0  0  0  0  0  0
   64.4077   32.6849   71.8437 C   0  0  0  0  0  0
   67.2634   34.6339   71.5980 C   0  0  0  0  0  0
   68.1705   35.5924   70.8660 C   0  0  0  0  0  0
   69.4570   35.1944   70.3856 C   0  0  0  0  0  0
   70.3014   36.1194   69.7548 C   0  0  0  0  0  0
   69.8684   37.4497   69.5979 C   0  0  0  0  0  0
   70.7149   38.3347   68.9998 O   0  0  0  0  0  0
   68.5974   37.8536   70.0662 C   0  0  0  0  0  0
   67.7765   36.9222   70.6895 C   0  0  0  0  0  0
   67.1656   34.8998   73.0364 C   0  0  0  0  0  0
   67.7926   34.0833   73.9746 C   0  0  0  0  0  0
   67.7331   34.3297   75.3173 C   0  0  0  0  0  0
   67.0287   35.4305   75.7777 C   0  0  0  0  0  0
   66.9499   35.7691   77.0981 O   0  0  0  0  0  0
   67.9219   35.2784   78.0165 C   0  0  0  0  0  0
   68.3733   36.4587   78.8334 C   0  0  0  0  0  0
   67.3531   36.9880   79.6964 N   0  0  0  0  0  0
   67.4610   36.4517   81.0539 C   0  0  0  0  0  0
   67.4816   38.4479   79.7708 C   0  0  0  0  0  0
   66.3807   36.2752   74.8597 C   0  0  0  0  0  0
   66.4557   36.0064   73.5218 C   0  0  0  0  0  0
   71.4542   38.0223   68.5163 H   0  0  0  0  0  0
  1  2  1  0  0  0
  2  3  1  0  0  0
  3  4  1  0  0  0
  3 10  1  0  0  0
  4  5  2  0  0  0
  4  9  1  0  0  0
  5  6  1  0  0  0
  6  7  2  0  0  0
  7  8  1  0  0  0
  8  9  2  0  0  0
 10 11  1  0  0  0
 10 18  1  0  0  0
 11 12  2  0  0  0
 11 17  1  0  0  0
 12 13  1  0  0  0
 13 14  2  0  0  0
 14 15  1  0  0  0
 14 16  1  0  0  0
 15 30  1  0  0  0
 16 17  2  0  0  0
 18 19  2  0  0  0
 18 29  1  0  0  0
 19 20  1  0  0  0
 20 21  2  0  0  0
 21 22  1  0  0  0
 21 28  1  0  0  0
 22 23  1  0  0  0
 23 24  1  0  0  0
 24 25  1  0  0  0
 25 26  1  0  0  0
 25 27  1  0  0  0
 28 29  2  0  0  0
M  END
>  <CHROM.0>
-135.50058583,-58.58922679,-128.47313203,-37.31437420

>  <CHROM.1>
115.97686210,100.76721423,-5.00353805,-72.18255588,73.04449984,15.47584519
20.46040179,132.40124793,67.32284812,96.05213448,67.26021851,35.02784452
73.42774498,1.53236584,-0.93003163,-1.77491411

>  <FORMUL>
      OHT    C26 H29 N1 O2

>  <HET>
 OHT  A 600      29

>  <HETNAM>
     OHT 4-HYDROXYTAMOXIFEN

>  <Name>
OHT.pdb

>  <RI>
0

>  <Rbt.Current_Directory>
/home/malgorzata/Desktop/rDOCK_IFD/Wyniki/5a_estrogen_receptor

>  <Rbt.Executable>
rbdock ($Id: //depot/dev/client3/rdock/2013.1/src/exe/rbdock.cxx#4 $)

>  <Rbt.Library>
libRbt.so (2013.1, Build901 2013/11/27)

>  <Rbt.Parameter_File>
/home/malgorzata/Desktop/rDock_2013.1_src/data/scripts/soft_docking.prm

>  <Rbt.Receptor>
cavity.prm

>  <SCORE>
-84.9888

>  <SCORE.INTER>
-22.9335

>  <SCORE.INTER.CONST>
1

>  <SCORE.INTER.POLAR>
-1.14573

>  <SCORE.INTER.REPUL>
0.10259

>  <SCORE.INTER.ROT>
9

>  <SCORE.INTER.VDW>
-33.951

>  <SCORE.INTER.norm>
-0.790811

>  <SCORE.INTRA>
-2.84228

>  <SCORE.INTRA.DIHEDRAL>
1.01

>  <SCORE.INTRA.DIHEDRAL.0>
14.7815

>  <SCORE.INTRA.POLAR>
0

>  <SCORE.INTRA.POLAR.0>
0

>  <SCORE.INTRA.REPUL>
0

>  <SCORE.INTRA.REPUL.0>
0

>  <SCORE.INTRA.VDW>
-3.04428

>  <SCORE.INTRA.VDW.0>
-0.0652974

>  <SCORE.INTRA.norm>
-0.0980096

>  <SCORE.RESTR>
0

>  <SCORE.RESTR.CAVITY>
0

>  <SCORE.RESTR.norm>
0

>  <SCORE.SYSTEM>
-59.213

>  <SCORE.SYSTEM.CONST>
0

>  <SCORE.SYSTEM.DIHEDRAL>
2.72632

>  <SCORE.SYSTEM.POLAR>
-0.291094

>  <SCORE.SYSTEM.REPUL>
0.0521451

>  <SCORE.SYSTEM.VDW>
-59.8471

>  <SCORE.SYSTEM.norm>
-2.04183

>  <SCORE.heavy>
29

>  <SCORE.norm>
-2.93065

$$$$
OHT.pdb
  rDOCK(R)          3D
libRbt.so/2013.1/901 2013/11/27
 30 32  0  0  0  0  0  0  0  0999 V2000
   65.5563   34.9903   79.6998 C   0  0  0  0  0  0
   66.6026   34.1087   79.0752 C   0  0  0  0  0  0
   67.8475   34.8812   78.6909 C   0  0  0  0  0  0
   68.9366   34.8101   79.7124 C   0  0  0  0  0  0
   69.1575   35.8808   80.6045 C   0  0  0  0  0  0
   70.1422   35.7924   81.5890 C   0  0  0  0  0  0
   70.9246   34.6612   81.7131 C   0  0  0  0  0  0
   70.7239   33.6092   80.8515 C   0  0  0  0  0  0
   69.7380   33.6848   79.8612 C   0  0  0  0  0  0
   67.9527   35.5739   77.5188 C   0  0  0  0  0  0
   67.7906   37.0702   77.4094 C   0  0  0  0  0  0
   66.7648   37.6604   76.6070 C   0  0  0  0  0  0
   66.6693   39.0538   76.4812 C   0  0  0  0  0  0
   67.5970   39.8700   77.1557 C   0  0  0  0  0  0
   67.4959   41.2204   77.0018 O   0  0  0  0  0  0
   68.6133   39.2977   77.9541 C   0  0  0  0  0  0
   68.6915   37.9151   78.0646 C   0  0  0  0  0  0
   68.2206   34.9164   76.2361 C   0  0  0  0  0  0
   69.0861   33.8295   76.1390 C   0  0  0  0  0  0
   69.3288   33.1887   74.9568 C   0  0  0  0  0  0
   68.6955   33.6234   73.8036 C   0  0  0  0  0  0
   68.8534   33.0176   72.5901 O   0  0  0  0  0  0
   68.2035   31.7781   72.3250 C   0  0  0  0  0  0
   67.1149   32.0701   71.3280 C   0  0  0  0  0  0
   66.6885   30.9167   70.5840 N   0  0  0  0  0  0
   65.6173   30.1948   71.2723 C   0  0  0  0  0  0
   66.1851   31.3375   69.2715 C   0  0  0  0  0  0
   67.8174   34.7194   73.8632 C   0  0  0  0  0  0
   67.5921   35.3429   75.0584 C   0  0  0  0  0  0
   68.1975   41.7009   76.6082 H   0  0  0  0  0  0
  1  2  1  0  0  0
  2  3  1  0  0  0
  3  4  1  0  0  0
  3 10  1  0  0  0
  4  5  2  0  0  0
  4  9  1  0  0  0
  5  6  1  0  0  0
  6  7  2  0  0  0
  7  8  1  0  0  0
  8  9  2  0  0  0
 10 11  1  0  0  0
 10 18  1  0  0  0
 11 12  2  0  0  0
 11 17  1  0  0  0
 12 13  1  0  0  0
 13 14  2  0  0  0
 14 15  1  0  0  0
 14 16  1  0  0  0
 15 30  1  0  0  0
 16 17  2  0  0  0
 18 19  2  0  0  0
 18 29  1  0  0  0
 19 20  1  0  0  0
 20 21  2  0  0  0
 21 22  1  0  0  0
 21 28  1  0  0  0
 22 23  1  0  0  0
 23 24  1  0  0  0
 24 25  1  0  0  0
 25 26  1  0  0  0
 25 27  1  0  0  0
 28 29  2  0  0  0
M  END
>  <CHROM.0>
-6.23109664,-60.30323654,-54.96068727,121.16218389

>  <CHROM.1>
96.71928623,-101.02933924,101.15319187,-119.00566817,-37.42822513,-117.59661857
75.41227832,109.48706339,158.31040380,88.22559142,68.04405211,34.96413779
76.35290795,-1.08407402,1.20967038,-2.59047713

>  <FORMUL>
      OHT    C26 H29 N1 O2

>  <HET>
 OHT  A 600      29

>  <HETNAM>
     OHT 4-HYDROXYTAMOXIFEN

>  <Name>
OHT.pdb

>  <RI>
0

>  <Rbt.Current_Directory>
/home/malgorzata/Desktop/rDOCK_IFD/Wyniki/5a_estrogen_receptor

>  <Rbt.Executable>
rbdock ($Id: //depot/dev/client3/rdock/2013.1/src/exe/rbdock.cxx#4 $)

>  <Rbt.Library>
libRbt.so (2013.1, Build901 2013/11/27)

>  <Rbt.Parameter_File>
/home/malgorzata/Desktop/rDock_2013.1_src/data/scripts/soft_docking.prm

>  <Rbt.Receptor>
cavity.prm

>  <SCORE>
-72.3824

>  <SCORE.INTER>
-13.8119

>  <SCORE.INTER.CONST>
1

>  <SCORE.INTER.POLAR>
-0.661534

>  <SCORE.INTER.REPUL>
0

>  <SCORE.INTER.ROT>
9

>  <SCORE.INTER.VDW>
-25.9627

>  <SCORE.INTER.norm>
-0.476273

>  <SCORE.INTRA>
-1.23651

>  <SCORE.INTRA.DIHEDRAL>
10.0699

>  <SCORE.INTRA.DIHEDRAL.0>
14.7815

>  <SCORE.INTRA.POLAR>
0

>  <SCORE.INTRA.POLAR.0>
0

>  <SCORE.INTRA.REPUL>
0

>  <SCORE.INTRA.REPUL.0>
0

>  <SCORE.INTRA.VDW>
-3.25048

>  <SCORE.INTRA.VDW.0>
-0.0652974

>  <SCORE.INTRA.norm>
-0.0426382

>  <SCORE.RESTR>
3.43228

>  <SCORE.RESTR.CAVITY>
0.686456

>  <SCORE.RESTR.norm>
0.118355

>  <SCORE.SYSTEM>
-60.7663

>  <SCORE.SYSTEM.CONST>
0

>  <SCORE.SYSTEM.DIHEDRAL>
4.45738

>  <SCORE.SYSTEM.POLAR>
-0.208087

>  <SCORE.SYSTEM.REPUL>
0.12058

>  <SCORE.SYSTEM.VDW>
-62.8904

>  <SCORE.SYSTEM.norm>
-2.09539

>  <SCORE.heavy>
29

>  <SCORE.norm>
-2.49595

$$$$
OHT.pdb
  rDOCK(R)          3D
libRbt.so/2013.1/901 2013/11/27
 30 32  0  0  0  0  0  0  0  0999 V2000
   71.0342   32.1238   75.9388 C   0  0  0  0  0  0
   70.0653   31.7141   77.0138 C   0  0  0  0  0  0
   69.5815   32.8952   77.8293 C   0  0  0  0  0  0
   69.5665   32.6410   79.3023 C   0  0  0  0  0  0
   68.6441   31.7347   79.8668 C   0  0  0  0  0  0
   68.6640   31.4619   81.2350 C   0  0  0  0  0  0
   69.5808   32.0715   82.0687 C   0  0  0  0  0  0
   70.4858   32.9583   81.5358 C   0  0  0  0  0  0
   70.4774   33.2388   80.1648 C   0  0  0  0  0  0
   69.1976   34.0758   77.2606 C   0  0  0  0  0  0
   69.1521   34.3157   75.7714 C   0  0  0  0  0  0
   70.0172   35.2583   75.1332 C   0  0  0  0  0  0
   69.9180   35.4999   73.7554 C   0  0  0  0  0  0
   68.9543   34.8023   73.0029 C   0  0  0  0  0  0
   68.8637   35.0691   71.6694 O   0  0  0  0  0  0
   68.0957   33.8660   73.6227 C   0  0  0  0  0  0
   68.2093   33.6421   74.9890 C   0  0  0  0  0  0
   68.8039   35.2426   78.0561 C   0  0  0  0  0  0
   67.4802   35.4573   78.4326 C   0  0  0  0  0  0
   67.0985   36.5254   79.1945 C   0  0  0  0  0  0
   68.0531   37.4361   79.6181 C   0  0  0  0  0  0
   67.7630   38.5090   80.4114 O   0  0  0  0  0  0
   68.7286   38.9842   81.3444 C   0  0  0  0  0  0
   68.9731   40.4305   81.0083 C   0  0  0  0  0  0
   70.1625   40.9699   81.6083 N   0  0  0  0  0  0
   70.9919   41.6725   80.6283 C   0  0  0  0  0  0
   69.7926   41.9235   82.6605 C   0  0  0  0  0  0
   69.3986   37.2530   79.2547 C   0  0  0  0  0  0
   69.7540   36.1762   78.4918 C   0  0  0  0  0  0
   68.4940   35.8792   71.3778 H   0  0  0  0  0  0
  1  2  1  0  0  0
  2  3  1  0  0  0
  3  4  1  0  0  0
  3 10  1  0  0  0
  4  5  2  0  0  0
  4  9  1  0  0  0
  5  6  1  0  0  0
  6  7  2  0  0  0
  7  8  1  0  0  0
  8  9  2  0  0  0
 10 11  1  0  0  0
 10 18  1  0  0  0
 11 12  2  0  0  0
 11 17  1  0  0  0
 12 13  1  0  0  0
 13 14  2  0  0  0
 14 15  1  0  0  0
 14 16  1  0  0  0
 15 30  1  0  0  0
 16 17  2  0  0  0
 18 19  2  0  0  0
 18 29  1  0  0  0
 19 20  1  0  0  0
 20 21  2  0  0  0
 21 22  1  0  0  0
 21 28  1  0  0  0
 22 23  1  0  0  0
 23 24  1  0  0  0
 24 25  1  0  0  0
 25 26  1  0  0  0
 25 27  1  0  0  0
 28 29  2  0  0  0
M  END
>  <CHROM.0>
-128.24278393,-58.14128533,-54.98318244,-57.93116387

>  <CHROM.1>
-135.54790936,-69.08538487,2.85607302,-114.46007410,-90.46618658,-72.65529907
147.76752587,122.70529506,-164.36954747,130.67155618,69.23675470,35.55035637
78.31037697,-1.87220632,-1.52103099,0.43697890

>  <FORMUL>
      OHT    C26 H29 N1 O2

>  <HET>
 OHT  A 600      29

>  <HETNAM>
     OHT 4-HYDROXYTAMOXIFEN

>  <Name>
OHT.pdb

>  <RI>
0

>  <Rbt.Current_Directory>
/home/malgorzata/Desktop/rDOCK_IFD/Wyniki/5a_estrogen_receptor

>  <Rbt.Executable>
rbdock ($Id: //depot/dev/client3/rdock/2013.1/src/exe/rbdock.cxx#4 $)

>  <Rbt.Library>
libRbt.so (2013.1, Build901 2013/11/27)

>  <Rbt.Parameter_File>
/home/malgorzata/Desktop/rDock_2013.1_src/data/scripts/soft_docking.prm

>  <Rbt.Receptor>
cavity.prm

>  <SCORE>
-68.6796

>  <SCORE.INTER>
-11.6693

>  <SCORE.INTER.CONST>
1

>  <SCORE.INTER.POLAR>
0

>  <SCORE.INTER.REPUL>
0

>  <SCORE.INTER.ROT>
9

>  <SCORE.INTER.VDW>
-26.0693

>  <SCORE.INTER.norm>
-0.402389

>  <SCORE.INTRA>
0.88728

>  <SCORE.INTRA.DIHEDRAL>
8.11911

>  <SCORE.INTRA.DIHEDRAL.0>
14.7815

>  <SCORE.INTRA.POLAR>
0

>  <SCORE.INTRA.POLAR.0>
0

>  <SCORE.INTRA.REPUL>
0

>  <SCORE.INTRA.REPUL.0>
0

>  <SCORE.INTRA.VDW>
-0.736542

>  <SCORE.INTRA.VDW.0>
-0.0652974

>  <SCORE.INTRA.norm>
0.0305959

>  <SCORE.RESTR>
0

>  <SCORE.RESTR.CAVITY>
0

>  <SCORE.RESTR.norm>
0

>  <SCORE.SYSTEM>
-57.8976

>  <SCORE.SYSTEM.CONST>
0

>  <SCORE.SYSTEM.DIHEDRAL>
4.40754

>  <SCORE.SYSTEM.POLAR>
-0.296674

>  <SCORE.SYSTEM.REPUL>
0.0323138

>  <SCORE.SYSTEM.VDW>
-59.2542

>  <SCORE.SYSTEM.norm>
-1.99647

>  <SCORE.heavy>
29

>  <SCORE.norm>
-2.36826

$$$$
OHT.pdb
  rDOCK(R)          3D
libRbt.so/2013.1/901 2013/11/27
 30 32  0  0  0  0  0  0  0  0999 V2000
   67.4466   37.1559   72.3073 C   0  0  0  0  0  0
   68.3811   36.1592   71.6783 C   0  0  0  0  0  0
   67.6676   34.8908   71.2587 C   0  0  0  0  0  0
   66.9096   35.0249   69.9773 C   0  0  0  0  0  0
   65.6832   35.7215   69.9363 C   0  0  0  0  0  0
   65.0016   35.8878   68.7303 C   0  0  0  0  0  0
   65.5058   35.3744   67.5515 C   0  0  0  0  0  0
   66.6987   34.6918   67.5734 C   0  0  0  0  0  0
   67.3929   34.5201   68.7763 C   0  0  0  0  0  0
   67.7195   33.7393   71.9909 C   0  0  0  0  0  0
   67.0964   32.4364   71.5534 C   0  0  0  0  0  0
   67.7840   31.1899   71.6868 C   0  0  0  0  0  0
   67.2030   30.0005   71.2240 C   0  0  0  0  0  0
   65.9302   30.0453   70.6242 C   0  0  0  0  0  0
   65.3952   28.8792   70.1643 O   0  0  0  0  0  0
   65.2399   31.2714   70.4898 C   0  0  0  0  0  0
   65.8335   32.4386   70.9536 C   0  0  0  0  0  0
   68.3811   33.6650   73.2970 C   0  0  0  0  0  0
   69.3984   32.7478   73.5495 C   0  0  0  0  0  0
   70.0432   32.6806   74.7524 C   0  0  0  0  0  0
   69.6844   33.5527   75.7676 C   0  0  0  0  0  0
   70.3017   33.5772   76.9853 O   0  0  0  0  0  0
   69.5611   33.9292   78.1501 C   0  0  0  0  0  0
   70.5610   34.0754   79.2651 C   0  0  0  0  0  0
   70.0031   33.8639   80.5726 N   0  0  0  0  0  0
   70.2729   32.5118   81.0636 C   0  0  0  0  0  0
   70.5923   34.8189   81.5183 C   0  0  0  0  0  0
   68.6597   34.4900   75.5495 C   0  0  0  0  0  0
   68.0306   34.5364   74.3372 C   0  0  0  0  0  0
   64.4692   28.8049   70.0415 H   0  0  0  0  0  0
  1  2  1  0  0  0
  2  3  1  0  0  0
  3  4  1  0  0  0
  3 10  1  0  0  0
  4  5  2  0  0  0
  4  9  1  0  0  0
  5  6  1  0  0  0
  6  7  2  0  0  0
  7  8  1  0  0  0
  8  9  2  0  0  0
 10 11  1  0  0  0
 10 18  1  0  0  0
 11 12  2  0  0  0
 11 17  1  0  0  0
 12 13  1  0  0  0
 13 14  2  0  0  0
 14 15  1  0  0  0
 14 16  1  0  0  0
 15 30  1  0  0  0
 16 17  2  0  0  0
 18 19  2  0  0  0
 18 29  1  0  0  0
 19 20  1  0  0  0
 20 21  2  0  0  0
 21 22  1  0  0  0
 21 28  1  0  0  0
 22 23  1  0  0  0
 23 24  1  0  0  0
 24 25  1  0  0  0
 25 26  1  0  0  0
 25 27  1  0  0  0
 28 29  2  0  0  0
M  END
>  <CHROM.0>
165.51252744,-58.17735771,132.01651155,-126.76310687

>  <CHROM.1>
78.59177146,-75.25092000,-175.77784329,136.25237158,-123.69402967,158.59316378
-148.16714322,-171.14245293,-154.91378330,98.97695975,67.91171333,33.57070278
73.28167020,-2.86898472,1.16933160,2.81728224

>  <FORMUL>
      OHT    C26 H29 N1 O2

>  <HET>
 OHT  A 600      29

>  <HETNAM>
     OHT 4-HYDROXYTAMOXIFEN

>  <Name>
OHT.pdb

>  <RI>
0

>  <Rbt.Current_Directory>
/home/malgorzata/Desktop/rDOCK_IFD/Wyniki/5a_estrogen_receptor

>  <Rbt.Executable>
rbdock ($Id: //depot/dev/client3/rdock/2013.1/src/exe/rbdock.cxx#4 $)

>  <Rbt.Library>
libRbt.so (2013.1, Build901 2013/11/27)

>  <Rbt.Parameter_File>
/home/malgorzata/Desktop/rDock_2013.1_src/data/scripts/soft_docking.prm

>  <Rbt.Receptor>
cavity.prm

>  <SCORE>
-69.2888

>  <SCORE.INTER>
-14.9799

>  <SCORE.INTER.CONST>
1

>  <SCORE.INTER.POLAR>
0

>  <SCORE.INTER.REPUL>
0

>  <SCORE.INTER.ROT>
9

>  <SCORE.INTER.VDW>
-29.3799

>  <SCORE.INTER.norm>
-0.516548

>  <SCORE.INTRA>
-0.785013

>  <SCORE.INTRA.DIHEDRAL>
-0.64903

>  <SCORE.INTRA.DIHEDRAL.0>
14.7815

>  <SCORE.INTRA.POLAR>
0

>  <SCORE.INTRA.POLAR.0>
0

>  <SCORE.INTRA.REPUL>
0

>  <SCORE.INTRA.REPUL.0>
0

>  <SCORE.INTRA.VDW>
-0.655207

>  <SCORE.INTRA.VDW.0>
-0.0652974

>  <SCORE.INTRA.norm>
-0.0270694

>  <SCORE.RESTR>
4.16638

>  <SCORE.RESTR.CAVITY>
0.833276

>  <SCORE.RESTR.norm>
0.143668

>  <SCORE.SYSTEM>
-57.6902

>  <SCORE.SYSTEM.CONST>
0

>  <SCORE.SYSTEM.DIHEDRAL>
4.00783

>  <SCORE.SYSTEM.POLAR>
-0.296523

>  <SCORE.SYSTEM.REPUL>
0.0339227

>  <SCORE.SYSTEM.VDW>
-58.8556

>  <SCORE.SYSTEM.norm>
-1.98932

>  <SCORE.heavy>
29

>  <SCORE.norm>
-2.38927

$$$$
OHT.pdb
  rDOCK(R)          3D
libRbt.so/2013.1/901 2013/11/27
 30 32  0  0  0  0  0  0  0  0999 V2000
   64.4678   32.6823   70.2108 C   0  0  0  0  0  0
   64.6906   33.2509   71.5853 C   0  0  0  0  0  0
   66.1258   33.0955   72.0437 C   0  0  0  0  0  0
   66.5171   31.6796   72.3202 C   0  0  0  0  0  0
   65.7528   30.8798   73.1961 C   0  0  0  0  0  0
   66.0913   29.5440   73.4149 C   0  0  0  0  0  0
   67.1801   28.9737   72.7851 C   0  0  0  0  0  0
   67.9365   29.7387   71.9296 C   0  0  0  0  0  0
   67.6061   31.0791   71.7002 C   0  0  0  0  0  0
   66.9727   34.1570   72.1872 C   0  0  0  0  0  0
   67.9417   34.3101   73.3339 C   0  0  0  0  0  0
   67.4974   34.5915   74.6635 C   0  0  0  0  0  0
   68.4221   34.7808   75.7006 C   0  0  0  0  0  0
   69.7984   34.6906   75.4191 C   0  0  0  0  0  0
   70.6779   34.8984   76.4394 O   0  0  0  0  0  0
   70.2491   34.4100   74.1091 C   0  0  0  0  0  0
   69.3168   34.2270   73.0956 C   0  0  0  0  0  0
   67.0083   35.2712   71.2350 C   0  0  0  0  0  0
   66.1489   36.3610   71.3533 C   0  0  0  0  0  0
   66.1843   37.4198   70.4902 C   0  0  0  0  0  0
   67.1058   37.4250   69.4555 C   0  0  0  0  0  0
   67.2326   38.4586   68.5722 O   0  0  0  0  0  0
   66.6446   39.7218   68.8680 C   0  0  0  0  0  0
   67.4589   40.7546   68.1369 C   0  0  0  0  0  0
   67.9059   41.8352   68.9725 N   0  0  0  0  0  0
   69.1154   42.4653   68.4411 C   0  0  0  0  0  0
   66.8571   42.8581   69.0554 C   0  0  0  0  0  0
   67.9872   36.3405   69.3036 C   0  0  0  0  0  0
   67.9310   35.2937   70.1805 C   0  0  0  0  0  0
   71.2878   34.2276   76.6761 H   0  0  0  0  0  0
  1  2  1  0  0  0
  2  3  1  0  0  0
  3  4  1  0  0  0
  3 10  1  0  0  0
  4  5  2  0  0  0
  4  9  1  0  0  0
  5  6  1  0  0  0
  6  7  2  0  0  0
  7  8  1  0  0  0
  8  9  2  0  0  0
 10 11  1  0  0  0
 10 18  1  0  0  0
 11 12  2  0  0  0
 11 17  1  0  0  0
 12 13  1  0  0  0
 13 14  2  0  0  0
 14 15  1  0  0  0
 14 16  1  0  0  0
 15 30  1  0  0  0
 16 17  2  0  0  0
 18 19  2  0  0  0
 18 29  1  0  0  0
 19 20  1  0  0  0
 20 21  2  0  0  0
 21 22  1  0  0  0
 21 28  1  0  0  0
 22 23  1  0  0  0
 23 24  1  0  0  0
 24 25  1  0  0  0
 25 26  1  0  0  0
 25 27  1  0  0  0
 28 29  2  0  0  0
M  END
>  <CHROM.0>
-15.63056636,-60.00190954,45.30843203,-158.15593694

>  <CHROM.1>
-69.13760599,-53.21634211,138.96285355,-70.50201331,86.20087185,121.23100515
15.36386344,153.27391329,-128.35546479,154.90092860,67.42115683,35.34211056
71.61792462,1.60528739,0.88214371,2.66873333

>  <FORMUL>
      OHT    C26 H29 N1 O2

>  <HET>
 OHT  A 600      29

>  <HETNAM>
     OHT 4-HYDROXYTAMOXIFEN

>  <Name>
OHT.pdb

>  <RI>
0

>  <Rbt.Current_Directory>
/home/malgorzata/Desktop/rDOCK_IFD/Wyniki/5a_estrogen_receptor

>  <Rbt.Executable>
rbdock ($Id: //depot/dev/client3/rdock/2013.1/src/exe/rbdock.cxx#4 $)

>  <Rbt.Library>
libRbt.so (2013.1, Build901 2013/11/27)

>  <Rbt.Parameter_File>
/home/malgorzata/Desktop/rDock_2013.1_src/data/scripts/soft_docking.prm

>  <Rbt.Receptor>
cavity.prm

>  <SCORE>
-75.8281

>  <SCORE.INTER>
-18.3025

>  <SCORE.INTER.CONST>
1

>  <SCORE.INTER.POLAR>
-0.0707622

>  <SCORE.INTER.REPUL>
0.382366

>  <SCORE.INTER.ROT>
9

>  <SCORE.INTER.VDW>
-34.3738

>  <SCORE.INTER.norm>
-0.631122

>  <SCORE.INTRA>
-1.0247

>  <SCORE.INTRA.DIHEDRAL>
7.09158

>  <SCORE.INTRA.DIHEDRAL.0>
14.7815

>  <SCORE.INTRA.POLAR>
0

>  <SCORE.INTRA.POLAR.0>
0

>  <SCORE.INTRA.REPUL>
0

>  <SCORE.INTRA.REPUL.0>
0

>  <SCORE.INTRA.VDW>
-2.44301

>  <SCORE.INTRA.VDW.0>
-0.0652974

>  <SCORE.INTRA.norm>
-0.0353344

>  <SCORE.RESTR>
5.32607

>  <SCORE.RESTR.CAVITY>
1.06521

>  <SCORE.RESTR.norm>
0.183658

>  <SCORE.SYSTEM>
-61.8269

>  <SCORE.SYSTEM.CONST>
0

>  <SCORE.SYSTEM.DIHEDRAL>
1.60556

>  <SCORE.SYSTEM.POLAR>
-0.232263

>  <SCORE.SYSTEM.REPUL>
0.109853

>  <SCORE.SYSTEM.VDW>
-62.3893

>  <SCORE.SYSTEM.norm>
-2.13196

>  <SCORE.heavy>
29

>  <SCORE.norm>
-2.61476

$$$$
OHT.pdb
  rDOCK(R)          3D
libRbt.so/2013.1/901 2013/11/27
 30 32  0  0  0  0  0  0  0  0999 V2000
   68.6062   32.3516   68.7069 C   0  0  0  0  0  0
   68.5546   31.7758   70.0954 C   0  0  0  0  0  0
   67.6744   32.5900   71.0209 C   0  0  0  0  0  0
   66.3344   31.9755   71.2684 C   0  0  0  0  0  0
   65.2153   32.3549   70.4971 C   0  0  0  0  0  0
   63.9764   31.7451   70.6966 C   0  0  0  0  0  0
   63.8134   30.7611   71.6518 C   0  0  0  0  0  0
   64.8926   30.3802   72.4131 C   0  0  0  0  0  0
   66.1410   30.9828   72.2212 C   0  0  0  0  0  0
   68.0785   33.7727   71.5709 C   0  0  0  0  0  0
   68.5485   33.9190   72.9975 C   0  0  0  0  0  0
   69.3312   35.0376   73.4220 C   0  0  0  0  0  0
   69.7992   35.1225   74.7412 C   0  0  0  0  0  0
   69.4893   34.0913   75.6480 C   0  0  0  0  0  0
   69.9723   34.1866   76.9189 O   0  0  0  0  0  0
   68.7138   32.9822   75.2403 C   0  0  0  0  0  0
   68.2609   32.9165   73.9286 C   0  0  0  0  0  0
   68.0776   35.0320   70.8204 C   0  0  0  0  0  0
   66.9037   35.5715   70.2999 C   0  0  0  0  0  0
   66.8798   36.7561   69.6193 C   0  0  0  0  0  0
   68.0591   37.4597   69.4345 C   0  0  0  0  0  0
   68.1178   38.6670   68.7992 O   0  0  0  0  0  0
   68.9690   39.6930   69.3009 C   0  0  0  0  0  0
   68.3836   40.9995   68.8375 C   0  0  0  0  0  0
   66.9757   41.1260   69.0972 N   0  0  0  0  0  0
   66.7010   41.2800   70.5265 C   0  0  0  0  0  0
   66.4524   42.3076   68.4019 C   0  0  0  0  0  0
   69.2637   36.9442   69.9435 C   0  0  0  0  0  0
   69.2602   35.7569   70.6205 C   0  0  0  0  0  0
   69.4054   34.4495   77.6171 H   0  0  0  0  0  0
  1  2  1  0  0  0
  2  3  1  0  0  0
  3  4  1  0  0  0
  3 10  1  0  0  0
  4  5  2  0  0  0
  4  9  1  0  0  0
  5  6  1  0  0  0
  6  7  2  0  0  0
  7  8  1  0  0  0
  8  9  2  0  0  0
 10 11  1  0  0  0
 10 18  1  0  0  0
 11 12  2  0  0  0
 11 17  1  0  0  0
 12 13  1  0  0  0
 13 14  2  0  0  0
 14 15  1  0  0  0
 14 16  1  0  0  0
 15 30  1  0  0  0
 16 17  2  0  0  0
 18 19  2  0  0  0
 18 29  1  0  0  0
 19 20  1  0  0  0
 20 21  2  0  0  0
 21 22  1  0  0  0
 21 28  1  0  0  0
 22 23  1  0  0  0
 23 24  1  0  0  0
 24 25  1  0  0  0
 25 26  1  0  0  0
 25 27  1  0  0  0
 28 29  2  0  0  0
M  END
>  <CHROM.0>
98.27151260,-59.37584117,-25.74610062,143.00411945

>  <CHROM.1>
102.89239279,-94.86878220,-102.22985951,160.58663348,61.14351840,103.00207990
139.83770549,-154.87164016,49.28584588,70.43674383,67.65631336,35.23669598
71.31280727,1.67891710,0.93305048,2.64703950

>  <FORMUL>
      OHT    C26 H29 N1 O2

>  <HET>
 OHT  A 600      29

>  <HETNAM>
     OHT 4-HYDROXYTAMOXIFEN

>  <Name>
OHT.pdb

>  <RI>
0

>  <Rbt.Current_Directory>
/home/malgorzata/Desktop/rDOCK_IFD/Wyniki/5a_estrogen_receptor

>  <Rbt.Executable>
rbdock ($Id: //depot/dev/client3/rdock/2013.1/src/exe/rbdock.cxx#4 $)

>  <Rbt.Library>
libRbt.so (2013.1, Build901 2013/11/27)

>  <Rbt.Parameter_File>
/home/malgorzata/Desktop/rDock_2013.1_src/data/scripts/soft_docking.prm

>  <Rbt.Receptor>
cavity.prm

>  <SCORE>
-78.9616

>  <SCORE.INTER>
-21.3646

>  <SCORE.INTER.CONST>
1

>  <SCORE.INTER.POLAR>
-0.428974

>  <SCORE.INTER.REPUL>
0.0707877

>  <SCORE.INTER.ROT>
9

>  <SCORE.INTER.VDW>
-34.66

>  <SCORE.INTER.norm>
-0.736711

>  <SCORE.INTRA>
-0.679022

>  <SCORE.INTRA.DIHEDRAL>
1.91138

>  <SCORE.INTRA.DIHEDRAL.0>
14.7815

>  <SCORE.INTRA.POLAR>
0

>  <SCORE.INTRA.POLAR.0>
0

>  <SCORE.INTRA.REPUL>
0

>  <SCORE.INTRA.REPUL.0>
0

>  <SCORE.INTRA.VDW>
-1.0613

>  <SCORE.INTRA.VDW.0>
-0.0652974

>  <SCORE.INTRA.norm>
-0.0234145

>  <SCORE.RESTR>
3.58988

>  <SCORE.RESTR.CAVITY>
0.717976

>  <SCORE.RESTR.norm>
0.123789

>  <SCORE.SYSTEM>
-60.5079

>  <SCORE.SYSTEM.CONST>
0

>  <SCORE.SYSTEM.DIHEDRAL>
2.70274

>  <SCORE.SYSTEM.POLAR>
-0.264624

>  <SCORE.SYSTEM.REPUL>
0.0855305

>  <SCORE.SYSTEM.VDW>
-61.3872

>  <SCORE.SYSTEM.norm>
-2.08648

>  <SCORE.heavy>
29

>  <SCORE.norm>
-2.72282

$$$$
OHT.pdb
  rDOCK(R)          3D
libRbt.so/2013.1/901 2013/11/27
 30 32  0  0  0  0  0  0  0  0999 V2000
   64.7774   35.7657   70.7079 C   0  0  0  0  0  0
   65.6578   34.6774   70.1578 C   0  0  0  0  0  0
   66.8492   34.3985   71.0505 C   0  0  0  0  0  0
   68.0017   35.3219   70.8184 C   0  0  0  0  0  0
   68.1849   35.9430   69.5647 C   0  0  0  0  0  0
   69.2328   36.8423   69.3648 C   0  0  0  0  0  0
   70.1154   37.1440   70.3832 C   0  0  0  0  0  0
   69.9525   36.5470   71.6106 C   0  0  0  0  0  0
   68.9043   35.6449   71.8243 C   0  0  0  0  0  0
   66.8576   33.3949   71.9763 C   0  0  0  0  0  0
   66.0331   32.1363   71.8590 C   0  0  0  0  0  0
   65.0366   31.7954   72.8260 C   0  0  0  0  0  0
   64.3212   30.5938   72.7213 C   0  0  0  0  0  0
   64.5945   29.7224   71.6500 C   0  0  0  0  0  0
   63.9004   28.5515   71.5810 O   0  0  0  0  0  0
   65.5753   30.0505   70.6865 C   0  0  0  0  0  0
   66.2737   31.2451   70.8090 C   0  0  0  0  0  0
   67.6679   33.4549   73.1966 C   0  0  0  0  0  0
   68.6004   32.4669   73.5037 C   0  0  0  0  0  0
   69.3818   32.5187   74.6235 C   0  0  0  0  0  0
   69.2550   33.5893   75.4940 C   0  0  0  0  0  0
   70.0214   33.7368   76.6144 O   0  0  0  0  0  0
   69.4476   33.5238   77.9006 C   0  0  0  0  0  0
   68.8568   34.8398   78.3290 C   0  0  0  0  0  0
   69.8263   35.7684   78.8423 N   0  0  0  0  0  0
   70.9424   35.0807   79.4931 C   0  0  0  0  0  0
   70.3663   36.5735   77.7407 C   0  0  0  0  0  0
   68.3219   34.6037   75.2177 C   0  0  0  0  0  0
   67.5524   34.5278   74.0908 C   0  0  0  0  0  0
   63.3344   28.3002   72.2842 H   0  0  0  0  0  0
  1  2  1  0  0  0
  2  3  1  0  0  0
  3  4  1  0  0  0
  3 10  1  0  0  0
  4  5  2  0  0  0
  4  9  1  0  0  0
  5  6  1  0  0  0
  6  7  2  0  0  0
  7  8  1  0  0  0
  8  9  2  0  0  0
 10 11  1  0  0  0
 10 18  1  0  0  0
 11 12  2  0  0  0
 11 17  1  0  0  0
 12 13  1  0  0  0
 13 14  2  0  0  0
 14 15  1  0  0  0
 14 16  1  0  0  0
 15 30  1  0  0  0
 16 17  2  0  0  0
 18 19  2  0  0  0
 18 29  1  0  0  0
 19 20  1  0  0  0
 20 21  2  0  0  0
 21 22  1  0  0  0
 21 28  1  0  0  0
 22 23  1  0  0  0
 23 24  1  0  0  0
 24 25  1  0  0  0
 25 26  1  0  0  0
 25 27  1  0  0  0
 28 29  2  0  0  0
M  END
>  <CHROM.0>
50.98188441,-59.37585790,-9.77075451,176.23904988

>  <CHROM.1>
-83.86989063,-26.18002217,27.06461004,-118.42773950,-123.19181283,-6.94651098
-107.28826927,-87.64786491,-79.48378073,-30.61772609,67.74848670,33.80653140
73.35555513,-2.59539031,0.91519895,2.05122789

>  <FORMUL>
      OHT    C26 H29 N1 O2

>  <HET>
 OHT  A 600      29

>  <HETNAM>
     OHT 4-HYDROXYTAMOXIFEN

>  <Name>
OHT.pdb

>  <RI>
0

>  <Rbt.Current_Directory>
/home/malgorzata/Desktop/rDOCK_IFD/Wyniki/5a_estrogen_receptor

>  <Rbt.Executable>
rbdock ($Id: //depot/dev/client3/rdock/2013.1/src/exe/rbdock.cxx#4 $)

>  <Rbt.Library>
libRbt.so (2013.1, Build901 2013/11/27)

>  <Rbt.Parameter_File>
/home/malgorzata/Desktop/rDock_2013.1_src/data/scripts/soft_docking.prm

>  <Rbt.Receptor>
cavity.prm

>  <SCORE>
-77.3396

>  <SCORE.INTER>
-22.9761

>  <SCORE.INTER.CONST>
1

>  <SCORE.INTER.POLAR>
0

>  <SCORE.INTER.REPUL>
0.115563

>  <SCORE.INTER.ROT>
9

>  <SCORE.INTER.VDW>
-37.9539

>  <SCORE.INTER.norm>
-0.792278

>  <SCORE.INTRA>
7.09849

>  <SCORE.INTRA.DIHEDRAL>
3.30152

>  <SCORE.INTRA.DIHEDRAL.0>
14.7815

>  <SCORE.INTRA.POLAR>
0

>  <SCORE.INTRA.POLAR.0>
0

>  <SCORE.INTRA.REPUL>
0

>  <SCORE.INTRA.REPUL.0>
0

>  <SCORE.INTRA.VDW>
6.43819

>  <SCORE.INTRA.VDW.0>
-0.0652974

>  <SCORE.INTRA.norm>
0.244776

>  <SCORE.RESTR>
0.150393

>  <SCORE.RESTR.CAVITY>
0.0300786

>  <SCORE.RESTR.norm>
0.00518596

>  <SCORE.SYSTEM>
-61.6124

>  <SCORE.SYSTEM.CONST>
0

>  <SCORE.SYSTEM.DIHEDRAL>
0.950294

>  <SCORE.SYSTEM.POLAR>
-0.264623

>  <SCORE.SYSTEM.REPUL>
0.0855312

>  <SCORE.SYSTEM.VDW>
-61.6155

>  <SCORE.SYSTEM.norm>
-2.12457

>  <SCORE.heavy>
29

>  <SCORE.norm>
-2.66688

$$$$
OHT.pdb
  rDOCK(R)          3D
libRbt.so/2013.1/901 2013/11/27
 30 32  0  0  0  0  0  0  0  0999 V2000
   64.3339   36.2246   71.4244 C   0  0  0  0  0  0
   64.7440   35.3593   70.2645 C   0  0  0  0  0  0
   66.0861   34.6951   70.4919 C   0  0  0  0  0  0
   66.1868   33.3274   69.8971 C   0  0  0  0  0  0
   66.5096   33.1575   68.5340 C   0  0  0  0  0  0
   66.6513   31.8795   67.9923 C   0  0  0  0  0  0
   66.4769   30.7530   68.7720 C   0  0  0  0  0  0
   66.1608   30.9001   70.1016 C   0  0  0  0  0  0
   66.0180   32.1765   70.6572 C   0  0  0  0  0  0
   67.1007   35.2993   71.1776 C   0  0  0  0  0  0
   68.1028   36.2338   70.5452 C   0  0  0  0  0  0
   67.7624   37.5769   70.1922 C   0  0  0  0  0  0
   68.6973   38.4075   69.5578 C   0  0  0  0  0  0
   69.9803   37.9044   69.2707 C   0  0  0  0  0  0
   70.8647   38.7243   68.6357 O   0  0  0  0  0  0
   70.3289   36.5793   69.6178 C   0  0  0  0  0  0
   69.3878   35.7723   70.2445 C   0  0  0  0  0  0
   67.3241   35.0800   72.6098 C   0  0  0  0  0  0
   67.4519   36.1432   73.5005 C   0  0  0  0  0  0
   67.6356   35.9581   74.8418 C   0  0  0  0  0  0
   67.6966   34.6704   75.3500 C   0  0  0  0  0  0
   67.8409   34.3975   76.6801 O   0  0  0  0  0  0
   68.6573   35.2355   77.4926 C   0  0  0  0  0  0
   68.9914   34.4413   78.7263 C   0  0  0  0  0  0
   68.8351   35.1805   79.9490 N   0  0  0  0  0  0
   68.3580   34.3283   81.0391 C   0  0  0  0  0  0
   70.1276   35.7500   80.3471 C   0  0  0  0  0  0
   67.5745   33.5729   74.4802 C   0  0  0  0  0  0
   67.3915   33.7855   73.1426 C   0  0  0  0  0  0
   71.3381   38.4141   67.8889 H   0  0  0  0  0  0
  1  2  1  0  0  0
  2  3  1  0  0  0
  3  4  1  0  0  0
  3 10  1  0  0  0
  4  5  2  0  0  0
  4  9  1  0  0  0
  5  6  1  0  0  0
  6  7  2  0  0  0
  7  8  1  0  0  0
  8  9  2  0  0  0
 10 11  1  0  0  0
 10 18  1  0  0  0
 11 12  2  0  0  0
 11 17  1  0  0  0
 12 13  1  0  0  0
 13 14  2  0  0  0
 14 15  1  0  0  0
 14 16  1  0  0  0
 15 30  1  0  0  0
 16 17  2  0  0  0
 18 19  2  0  0  0
 18 29  1  0  0  0
 19 20  1  0  0  0
 20 21  2  0  0  0
 21 22  1  0  0  0
 21 28  1  0  0  0
 22 23  1  0  0  0
 23 24  1  0  0  0
 24 25  1  0  0  0
 25 26  1  0  0  0
 25 27  1  0  0  0
 28 29  2  0  0  0
M  END
>  <CHROM.0>
63.04893374,-58.69514646,-126.13426022,-122.23185136

>  <CHROM.1>
145.62501519,83.14169114,-86.16989735,75.32205449,-128.30553308,-131.45755708
-36.18655716,-161.00351480,-134.12439515,145.00063040,67.73149087,34.98463225
72.72580751,1.81795735,-0.98692268,-1.37480922

>  <FORMUL>
      OHT    C26 H29 N1 O2

>  <HET>
 OHT  A 600      29

>  <HETNAM>
     OHT 4-HYDROXYTAMOXIFEN

>  <Name>
OHT.pdb

>  <RI>
0

>  <Rbt.Current_Directory>
/home/malgorzata/Desktop/rDOCK_IFD/Wyniki/5a_estrogen_receptor

>  <Rbt.Executable>
rbdock ($Id: //depot/dev/client3/rdock/2013.1/src/exe/rbdock.cxx#4 $)

>  <Rbt.Library>
libRbt.so (2013.1, Build901 2013/11/27)

>  <Rbt.Parameter_File>
/home/malgorzata/Desktop/rDock_2013.1_src/data/scripts/soft_docking.prm

>  <Rbt.Receptor>
cavity.prm

>  <SCORE>
-79.2202

>  <SCORE.INTER>
-21.9098

>  <SCORE.INTER.CONST>
1

>  <SCORE.INTER.POLAR>
-0.881077

>  <SCORE.INTER.REPUL>
0.0916528

>  <SCORE.INTER.ROT>
9

>  <SCORE.INTER.VDW>
-33.7724

>  <SCORE.INTER.norm>
-0.755509

>  <SCORE.INTRA>
-1.56276

>  <SCORE.INTRA.DIHEDRAL>
4.60264

>  <SCORE.INTRA.DIHEDRAL.0>
14.7815

>  <SCORE.INTRA.POLAR>
0

>  <SCORE.INTRA.POLAR.0>
0

>  <SCORE.INTRA.REPUL>
0

>  <SCORE.INTRA.REPUL.0>
0

>  <SCORE.INTRA.VDW>
-2.48329

>  <SCORE.INTRA.VDW.0>
-0.0652974

>  <SCORE.INTRA.norm>
-0.0538883

>  <SCORE.RESTR>
2.86616

>  <SCORE.RESTR.CAVITY>
0.573232

>  <SCORE.RESTR.norm>
0.0988331

>  <SCORE.SYSTEM>
-58.6138

>  <SCORE.SYSTEM.CONST>
0

>  <SCORE.SYSTEM.DIHEDRAL>
4.38236

>  <SCORE.SYSTEM.POLAR>
-0.288661

>  <SCORE.SYSTEM.REPUL>
0.0567703

>  <SCORE.SYSTEM.VDW>
-60.1074

>  <SCORE.SYSTEM.norm>
-2.02117

>  <SCORE.heavy>
29

>  <SCORE.norm>
-2.73173

$$$$
OHT.pdb
  rDOCK(R)          3D
libRbt.so/2013.1/901 2013/11/27
 30 32  0  0  0  0  0  0  0  0999 V2000
   71.5832   36.0705   80.4748 C   0  0  0  0  0  0
   70.9871   36.9531   79.4129 C   0  0  0  0  0  0
   69.8897   36.2546   78.6370 C   0  0  0  0  0  0
   69.4058   34.9966   79.2834 C   0  0  0  0  0  0
   68.6105   35.0459   80.4480 C   0  0  0  0  0  0
   68.1190   33.8729   81.0217 C   0  0  0  0  0  0
   68.3996   32.6388   80.4690 C   0  0  0  0  0  0
   69.1740   32.5722   79.3354 C   0  0  0  0  0  0
   69.6712   33.7416   78.7492 C   0  0  0  0  0  0
   69.3974   36.7384   77.4588 C   0  0  0  0  0  0
   68.8311   38.1272   77.2917 C   0  0  0  0  0  0
   68.5036   38.9478   78.4158 C   0  0  0  0  0  0
   67.9298   40.2142   78.2327 C   0  0  0  0  0  0
   67.6782   40.6722   76.9256 C   0  0  0  0  0  0
   67.1015   41.8978   76.7740 O   0  0  0  0  0  0
   68.0006   39.8709   75.8068 C   0  0  0  0  0  0
   68.5673   38.6189   76.0097 C   0  0  0  0  0  0
   69.3575   35.9360   76.2325 C   0  0  0  0  0  0
   70.4685   35.8170   75.4009 C   0  0  0  0  0  0
   70.4576   35.0539   74.2674 C   0  0  0  0  0  0
   69.3065   34.3650   73.9208 C   0  0  0  0  0  0
   69.2222   33.5524   72.8266 O   0  0  0  0  0  0
   68.7367   34.0714   71.5921 C   0  0  0  0  0  0
   67.3489   34.5873   71.8608 C   0  0  0  0  0  0
   67.0895   35.8763   71.2804 N   0  0  0  0  0  0
   66.7916   35.7758   69.8509 C   0  0  0  0  0  0
   65.9346   36.4907   71.9452 C   0  0  0  0  0  0
   68.1648   34.4640   74.7349 C   0  0  0  0  0  0
   68.2021   35.2341   75.8634 C   0  0  0  0  0  0
   67.0745   42.3016   75.9289 H   0  0  0  0  0  0
  1  2  1  0  0  0
  2  3  1  0  0  0
  3  4  1  0  0  0
  3 10  1  0  0  0
  4  5  2  0  0  0
  4  9  1  0  0  0
  5  6  1  0  0  0
  6  7  2  0  0  0
  7  8  1  0  0  0
  8  9  2  0  0  0
 10 11  1  0  0  0
 10 18  1  0  0  0
 11 12  2  0  0  0
 11 17  1  0  0  0
 12 13  1  0  0  0
 13 14  2  0  0  0
 14 15  1  0  0  0
 14 16  1  0  0  0
 15 30  1  0  0  0
 16 17  2  0  0  0
 18 19  2  0  0  0
 18 29  1  0  0  0
 19 20  1  0  0  0
 20 21  2  0  0  0
 21 22  1  0  0  0
 21 28  1  0  0  0
 22 23  1  0  0  0
 23 24  1  0  0  0
 24 25  1  0  0  0
 25 26  1  0  0  0
 25 27  1  0  0  0
 28 29  2  0  0  0
M  END
>  <CHROM.0>
-3.78674161,-57.50766859,-112.07547701,-157.76313925

>  <CHROM.1>
14.06029769,72.64041442,-55.45687060,-13.62855397,-83.22343942,168.01944226
-93.61147503,-58.67422893,135.29855600,79.24655965,68.69499163,36.17633745
76.26877265,-0.73003483,1.27768039,-2.44766044

>  <FORMUL>
      OHT    C26 H29 N1 O2

>  <HET>
 OHT  A 600      29

>  <HETNAM>
     OHT 4-HYDROXYTAMOXIFEN

>  <Name>
OHT.pdb

>  <RI>
0

>  <Rbt.Current_Directory>
/home/malgorzata/Desktop/rDOCK_IFD/Wyniki/5a_estrogen_receptor

>  <Rbt.Executable>
rbdock ($Id: //depot/dev/client3/rdock/2013.1/src/exe/rbdock.cxx#4 $)

>  <Rbt.Library>
libRbt.so (2013.1, Build901 2013/11/27)

>  <Rbt.Parameter_File>
/home/malgorzata/Desktop/rDock_2013.1_src/data/scripts/soft_docking.prm

>  <Rbt.Receptor>
cavity.prm

>  <SCORE>
-67.4825

>  <SCORE.INTER>
-13.822

>  <SCORE.INTER.CONST>
1

>  <SCORE.INTER.POLAR>
0

>  <SCORE.INTER.REPUL>
0

>  <SCORE.INTER.ROT>
9

>  <SCORE.INTER.VDW>
-28.222

>  <SCORE.INTER.norm>
-0.47662

>  <SCORE.INTRA>
1.90962

>  <SCORE.INTRA.DIHEDRAL>
1.71759

>  <SCORE.INTRA.DIHEDRAL.0>
14.7815

>  <SCORE.INTRA.POLAR>
0

>  <SCORE.INTRA.POLAR.0>
0

>  <SCORE.INTRA.REPUL>
0

>  <SCORE.INTRA.REPUL.0>
0

>  <SCORE.INTRA.VDW>
1.56611

>  <SCORE.INTRA.VDW.0>
-0.0652974

>  <SCORE.INTRA.norm>
0.0658491

>  <SCORE.RESTR>
2.00914

>  <SCORE.RESTR.CAVITY>
0.401827

>  <SCORE.RESTR.norm>
0.0692805

>  <SCORE.SYSTEM>
-57.5793

>  <SCORE.SYSTEM.CONST>
0

>  <SCORE.SYSTEM.DIHEDRAL>
1.65098

>  <SCORE.SYSTEM.POLAR>
-0.289451

>  <SCORE.SYSTEM.REPUL>
0.00408594

>  <SCORE.SYSTEM.VDW>
-57.4411

>  <SCORE.SYSTEM.norm>
-1.98549

>  <SCORE.heavy>
29

>  <SCORE.norm>
-2.32698

$$$$
