REMARK  11 active torsions:
REMARK  status: ('A' for Active; 'I' for Inactive)
REMARK    1  A    between atoms: C2_2  and  C11_11 
REMARK    2  A    between atoms: N1_5  and  O1_38 
REMARK    3  A    between atoms: C8_8  and  C13_13 
REMARK       I    between atoms: C13_13  and  N14_14 
REMARK    4  A    between atoms: N14_14  and  C15_16 
REMARK    5  A    between atoms: C15_16  and  C17_18 
REMARK    6  A    between atoms: C17_18  and  C18_19 
REMARK    7  A    between atoms: C17_18  and  C20_21 
REMARK    8  A    between atoms: C18_19  and  O19_20 
REMARK    9  A    between atoms: C20_21  and  C28_27 
REMARK   10  A    between atoms: C24_23  and  C29_28 
REMARK   11  A    between atoms: C29_28  and  N30_29 
ROOT
HETATM    1  C15 FXV A 401      -1.894  15.869  16.644  1.00 40.77     0.094 C 
HETATM    2  C16 FXV A 401      -1.694  14.341  16.549  1.00 45.08     0.033 C 
ENDROOT
BRANCH   1   3
HETATM    3  N14 FXV A 401      -0.827  16.494  15.905  1.00 42.14    -0.352 N 
HETATM    4  C13 FXV A 401       0.296  16.962  16.483  1.00 41.97     0.248 C 
HETATM    5  O33 FXV A 401       0.492  16.905  17.712  1.00 47.23    -0.268 OA
ATOM      6  H14 FXV A 401      -0.927  16.588  14.894  1.00  0.00     0.163 HD
BRANCH   4   7
HETATM    7  C8  FXV A 401       1.273  17.517  15.552  1.00 41.70     0.013 A 
HETATM    8  C7  FXV A 401       2.463  18.257  15.968  1.00 39.89     0.072 A 
HETATM    9  C12 FXV A 401       3.350  18.779  14.968  1.00 37.02    -0.010 A 
HETATM   10  C11 FXV A 401       3.113  18.601  13.561  1.00 37.95    -0.029 A 
HETATM   11  C10 FXV A 401       1.944  17.869  13.168  1.00 41.02     0.012 A 
HETATM   12  C9  FXV A 401       1.043  17.340  14.140  1.00 45.36     0.014 A 
BRANCH  10  13
HETATM   13  C2  FXV A 401       4.050  19.175  12.540  1.00 38.25    -0.024 A 
HETATM   14  C1  FXV A 401       3.633  19.345  11.179  1.00 36.59     0.032 A 
HETATM   15  C6  FXV A 401       4.558  19.903  10.247  1.00 42.03     0.123 A 
HETATM   16  N1  FXV A 401       5.848  20.294  10.597  1.00 45.76    -0.247 N 
HETATM   17  C4  FXV A 401       6.258  20.138  11.898  1.00 42.09     0.123 A 
HETATM   18  C3  FXV A 401       5.387  19.584  12.893  1.00 41.91     0.032 A 
BRANCH  16  19
HETATM   19  O1  FXV A 401       6.674  20.819   9.650  1.00 49.39    -0.284 OA
ATOM     20  H1  FXV A 401       6.483  20.733   8.723  1.00  0.00     0.245 HD
ENDBRANCH  16  19
ENDBRANCH  10  13
ENDBRANCH   4   7
ENDBRANCH   1   3
BRANCH   1  21
HETATM   21  C17 FXV A 401      -3.265  16.383  16.066  1.00 42.56     0.112 C 
BRANCH  21  22
HETATM   22  C18 FXV A 401      -3.153  16.547  14.539  1.00 43.81     0.264 C 
HETATM   23  O32 FXV A 401      -2.777  15.694  13.812  1.00 48.57    -0.265 OA
BRANCH  22  24
HETATM   24  O19 FXV A 401      -3.553  17.784  14.138  1.00 45.98    -0.326 OA
HETATM   25  C34 FXV A 401      -4.798  18.006  13.471  1.00 47.93     0.213 C 
ENDBRANCH  22  24
ENDBRANCH  21  22
BRANCH  21  26
HETATM   26  C20 FXV A 401      -3.786  17.728  16.749  1.00 33.69     0.051 C 
BRANCH  26  27
HETATM   27  C28 FXV A 401      -2.714  18.773  17.096  1.00 32.34    -0.075 A 
HETATM   28  C23 FXV A 401      -1.834  18.652  18.259  1.00 30.63     0.072 A 
HETATM   29  C24 FXV A 401      -0.829  19.671  18.557  1.00 27.59    -0.030 A 
HETATM   30  C25 FXV A 401      -0.721  20.818  17.671  1.00 25.83     0.065 A 
HETATM   31  C26 FXV A 401      -1.579  20.943  16.532  1.00 21.52    -0.022 A 
HETATM   32  C27 FXV A 401      -2.565  19.933  16.248  1.00 29.50    -0.001 A 
BRANCH  29  33
HETATM   33  C29 FXV A 401       0.054  19.554  19.720  1.00 23.14     0.095 C 
HETATM   34  N31 FXV A 401      -0.414  19.889  20.935  1.00 29.79    -0.386 N 
ATOM     35 2H31 FXV A 401      -1.377  20.213  21.024  1.00  0.00     0.157 HD
ATOM     36 1H31 FXV A 401       0.200  19.807  21.745  1.00  0.00     0.157 HD
BRANCH  33  37
HETATM   37  N30 FXV A 401       1.316  19.129  19.603  1.00 27.97    -0.386 N 
ATOM     38 2H30 FXV A 401       1.528  18.377  18.948  1.00  0.00     0.157 HD
ATOM     39 1H30 FXV A 401       2.071  19.536  20.155  1.00  0.00     0.157 HD
ENDBRANCH  33  37
ENDBRANCH  29  33
ENDBRANCH  26  27
ENDBRANCH  21  26
ENDBRANCH   1  21
TORSDOF 11
