REMARK  11 active torsions:
REMARK  status: ('A' for Active; 'I' for Inactive)
REMARK    1  A    between atoms: C2_2  and  C11_11 
REMARK    2  A    between atoms: N1_5  and  O1_38 
REMARK    3  A    between atoms: C8_8  and  C13_13 
REMARK       I    between atoms: C13_13  and  N14_14 
REMARK    4  A    between atoms: N14_14  and  C15_16 
REMARK    5  A    between atoms: C15_16  and  C17_18 
REMARK    6  A    between atoms: C17_18  and  C18_19 
REMARK    7  A    between atoms: C17_18  and  C20_21 
REMARK    8  A    between atoms: C18_19  and  O19_20 
REMARK    9  A    between atoms: C20_21  and  C28_27 
REMARK   10  A    between atoms: C24_23  and  C29_28 
REMARK   11  A    between atoms: C29_28  and  N30_29 
ROOT
HETATM    1  C15 FXV A 401      -1.021  17.512  18.408  1.00 40.77     0.094 C 
HETATM    2  C16 FXV A 401      -2.131  18.585  18.393  1.00 45.08     0.033 C 
ENDROOT
BRANCH   1   3
HETATM    3  N14 FXV A 401      -0.027  17.900  17.439  1.00 42.14    -0.352 N 
HETATM    4  C13 FXV A 401       1.204  17.354  17.385  1.00 41.97     0.248 C 
HETATM    5  O33 FXV A 401       1.585  16.478  18.184  1.00 47.23    -0.268 OA
ATOM      6  H14 FXV A 401      -0.267  18.625  16.762  1.00  0.00     0.163 HD
BRANCH   4   7
HETATM    7  C8  FXV A 401       2.042  17.853  16.301  1.00 41.70     0.013 A 
HETATM    8  C7  FXV A 401       3.345  18.484  16.504  1.00 39.89     0.072 A 
HETATM    9  C12 FXV A 401       4.080  18.959  15.367  1.00 37.02    -0.010 A 
HETATM   10  C11 FXV A 401       3.583  18.839  14.024  1.00 37.95    -0.029 A 
HETATM   11  C10 FXV A 401       2.305  18.214  13.839  1.00 41.02     0.012 A 
HETATM   12  C9  FXV A 401       1.551  17.733  14.951  1.00 45.36     0.014 A 
BRANCH  10  13
HETATM   13  C2  FXV A 401       4.368  19.362  12.859  1.00 38.25    -0.024 A 
HETATM   14  C1  FXV A 401       3.939  19.108  11.514  1.00 36.59     0.032 A 
HETATM   15  C6  FXV A 401       4.715  19.635  10.439  1.00 42.03     0.123 A 
HETATM   16  N1  FXV A 401       5.870  20.387  10.633  1.00 45.76    -0.247 N 
HETATM   17  C4  FXV A 401       6.291  20.639  11.916  1.00 42.09     0.123 A 
HETATM   18  C3  FXV A 401       5.565  20.144  13.049  1.00 41.91     0.032 A 
BRANCH  16  19
HETATM   19  O1  FXV A 401       6.559  20.857   9.555  1.00 49.39    -0.284 OA
ATOM     20  H1  FXV A 401       6.265  20.688   8.668  1.00  0.00     0.245 HD
ENDBRANCH  16  19
ENDBRANCH  10  13
ENDBRANCH   4   7
ENDBRANCH   1   3
BRANCH   1  21
HETATM   21  C17 FXV A 401      -0.310  17.330  19.801  1.00 42.56     0.112 C 
BRANCH  21  22
HETATM   22  C18 FXV A 401      -1.310  16.750  20.819  1.00 43.81     0.264 C 
HETATM   23  O32 FXV A 401      -2.049  17.410  21.463  1.00 48.57    -0.265 OA
BRANCH  22  24
HETATM   24  O19 FXV A 401      -1.242  15.392  20.868  1.00 45.98    -0.326 OA
HETATM   25  C34 FXV A 401      -0.113  14.665  20.379  1.00 47.93     0.213 C 
ENDBRANCH  22  24
ENDBRANCH  21  22
BRANCH  21  26
HETATM   26  C20 FXV A 401       0.364  18.664  20.358  1.00 33.69     0.051 C 
BRANCH  26  27
HETATM   27  C28 FXV A 401      -0.140  19.984  19.752  1.00 32.34    -0.075 A 
HETATM   28  C23 FXV A 401      -1.084  20.865  20.442  1.00 30.63     0.072 A 
HETATM   29  C24 FXV A 401      -1.543  22.110  19.827  1.00 27.59    -0.030 A 
HETATM   30  C25 FXV A 401      -1.044  22.458  18.507  1.00 25.83     0.065 A 
HETATM   31  C26 FXV A 401      -0.121  21.600  17.827  1.00 21.52    -0.022 A 
HETATM   32  C27 FXV A 401       0.324  20.376  18.441  1.00 29.50    -0.001 A 
BRANCH  29  33
HETATM   33  C29 FXV A 401      -2.486  22.996  20.514  1.00 23.14     0.095 C 
HETATM   34  N31 FXV A 401      -3.285  23.794  19.783  1.00 29.79    -0.386 N 
ATOM     35 2H31 FXV A 401      -3.222  23.764  18.766  1.00  0.00     0.157 HD
ATOM     36 1H31 FXV A 401      -3.942  24.411  20.261  1.00  0.00     0.157 HD
BRANCH  33  37
HETATM   37  N30 FXV A 401      -2.569  23.035  21.847  1.00 27.97    -0.386 N 
ATOM     38 2H30 FXV A 401      -3.227  22.418  22.322  1.00  0.00     0.157 HD
ATOM     39 1H30 FXV A 401      -1.994  23.670  22.400  1.00  0.00     0.157 HD
ENDBRANCH  33  37
ENDBRANCH  29  33
ENDBRANCH  26  27
ENDBRANCH  21  26
ENDBRANCH   1  21
TORSDOF 11
