REMARK  11 active torsions:
REMARK  status: ('A' for Active; 'I' for Inactive)
REMARK    1  A    between atoms: C2_2  and  C11_11 
REMARK    2  A    between atoms: N1_5  and  O1_38 
REMARK    3  A    between atoms: C8_8  and  C13_13 
REMARK       I    between atoms: C13_13  and  N14_14 
REMARK    4  A    between atoms: N14_14  and  C15_16 
REMARK    5  A    between atoms: C15_16  and  C17_18 
REMARK    6  A    between atoms: C17_18  and  C18_19 
REMARK    7  A    between atoms: C17_18  and  C20_21 
REMARK    8  A    between atoms: C18_19  and  O19_20 
REMARK    9  A    between atoms: C20_21  and  C28_27 
REMARK   10  A    between atoms: C24_23  and  C29_28 
REMARK   11  A    between atoms: C29_28  and  N30_29 
ROOT
HETATM    1  C15 FXV A 401      -1.984  15.958  16.774  1.00 40.77     0.094 C 
HETATM    2  C16 FXV A 401      -2.560  14.759  15.989  1.00 45.08     0.033 C 
ENDROOT
BRANCH   1   3
HETATM    3  N14 FXV A 401      -0.959  16.559  15.960  1.00 42.14    -0.352 N 
HETATM    4  C13 FXV A 401       0.337  16.612  16.324  1.00 41.97     0.248 C 
HETATM    5  O33 FXV A 401       0.748  16.158  17.409  1.00 47.23    -0.268 OA
ATOM      6  H14 FXV A 401      -1.227  16.965  15.063  1.00  0.00     0.163 HD
BRANCH   4   7
HETATM    7  C8  FXV A 401       1.222  17.221  15.337  1.00 41.70     0.013 A 
HETATM    8  C7  FXV A 401       1.193  16.900  13.912  1.00 39.89     0.072 A 
HETATM    9  C12 FXV A 401       2.123  17.543  13.028  1.00 37.02    -0.010 A 
HETATM   10  C11 FXV A 401       3.091  18.500  13.493  1.00 37.95    -0.029 A 
HETATM   11  C10 FXV A 401       3.104  18.809  14.894  1.00 41.02     0.012 A 
HETATM   12  C9  FXV A 401       2.192  18.183  15.796  1.00 45.36     0.014 A 
BRANCH  10  13
HETATM   13  C2  FXV A 401       4.061  19.141  12.547  1.00 38.25    -0.024 A 
HETATM   14  C1  FXV A 401       3.733  19.301  11.160  1.00 36.59     0.032 A 
HETATM   15  C6  FXV A 401       4.686  19.925  10.301  1.00 42.03     0.123 A 
HETATM   16  N1  FXV A 401       5.922  20.388  10.745  1.00 45.76    -0.247 N 
HETATM   17  C4  FXV A 401       6.247  20.242  12.071  1.00 42.09     0.123 A 
HETATM   18  C3  FXV A 401       5.342  19.625  12.997  1.00 41.91     0.032 A 
BRANCH  16  19
HETATM   19  O1  FXV A 401       6.780  20.973   9.864  1.00 49.39    -0.284 OA
ATOM     20  H1  FXV A 401       6.758  20.763   8.938  1.00  0.00     0.245 HD
ENDBRANCH  16  19
ENDBRANCH  10  13
ENDBRANCH   4   7
ENDBRANCH   1   3
BRANCH   1  21
HETATM   21  C17 FXV A 401      -3.041  17.066  17.139  1.00 42.56     0.112 C 
BRANCH  21  22
HETATM   22  C18 FXV A 401      -3.241  18.005  15.934  1.00 43.81     0.264 C 
HETATM   23  O32 FXV A 401      -2.921  17.734  14.829  1.00 48.57    -0.265 OA
BRANCH  22  24
HETATM   24  O19 FXV A 401      -3.842  19.169  16.302  1.00 45.98    -0.326 OA
HETATM   25  C34 FXV A 401      -3.511  20.423  15.701  1.00 47.93     0.213 C 
ENDBRANCH  22  24
ENDBRANCH  21  22
BRANCH  21  26
HETATM   26  C20 FXV A 401      -2.678  17.893  18.454  1.00 33.69     0.051 C 
BRANCH  26  27
HETATM   27  C28 FXV A 401      -1.281  18.533  18.489  1.00 32.34    -0.075 A 
HETATM   28  C23 FXV A 401      -0.196  18.026  19.332  1.00 30.63     0.072 A 
HETATM   29  C24 FXV A 401       1.118  18.668  19.339  1.00 27.59    -0.030 A 
HETATM   30  C25 FXV A 401       1.328  19.829  18.491  1.00 25.83     0.065 A 
HETATM   31  C26 FXV A 401       0.272  20.330  17.665  1.00 21.52    -0.022 A 
HETATM   32  C27 FXV A 401      -1.019  19.690  17.666  1.00 29.50    -0.001 A 
BRANCH  29  33
HETATM   33  C29 FXV A 401       2.207  18.164  20.180  1.00 23.14     0.095 C 
HETATM   34  N31 FXV A 401       2.118  16.926  20.696  1.00 29.79    -0.386 N 
ATOM     35 2H31 FXV A 401       1.295  16.359  20.489  1.00  0.00     0.157 HD
ATOM     36 1H31 FXV A 401       2.876  16.575  21.281  1.00  0.00     0.157 HD
BRANCH  33  37
HETATM   37  N30 FXV A 401       3.284  18.907  20.451  1.00 27.97    -0.386 N 
ATOM     38 2H30 FXV A 401       4.176  18.665  20.020  1.00  0.00     0.157 HD
ATOM     39 1H30 FXV A 401       3.238  19.707  21.082  1.00  0.00     0.157 HD
ENDBRANCH  33  37
ENDBRANCH  29  33
ENDBRANCH  26  27
ENDBRANCH  21  26
ENDBRANCH   1  21
TORSDOF 11
