REMARK  11 active torsions:
REMARK  status: ('A' for Active; 'I' for Inactive)
REMARK    1  A    between atoms: C2_2  and  C11_11 
REMARK    2  A    between atoms: N1_5  and  O1_38 
REMARK    3  A    between atoms: C8_8  and  C13_13 
REMARK       I    between atoms: C13_13  and  N14_14 
REMARK    4  A    between atoms: N14_14  and  C15_16 
REMARK    5  A    between atoms: C15_16  and  C17_18 
REMARK    6  A    between atoms: C17_18  and  C18_19 
REMARK    7  A    between atoms: C17_18  and  C20_21 
REMARK    8  A    between atoms: C18_19  and  O19_20 
REMARK    9  A    between atoms: C20_21  and  C28_27 
REMARK   10  A    between atoms: C24_23  and  C29_28 
REMARK   11  A    between atoms: C29_28  and  N30_29 
ROOT
HETATM    1  C15 FXV A 401       1.212  18.489  19.943  1.00 40.77     0.094 C 
HETATM    2  C16 FXV A 401       1.542  17.057  20.417  1.00 45.08     0.033 C 
ENDROOT
BRANCH   1   3
HETATM    3  N14 FXV A 401       1.931  18.717  18.715  1.00 42.14    -0.352 N 
HETATM    4  C13 FXV A 401       2.021  17.801  17.732  1.00 41.97     0.248 C 
HETATM    5  O33 FXV A 401       1.502  16.672  17.817  1.00 47.23    -0.268 OA
ATOM      6  H14 FXV A 401       2.394  19.617  18.583  1.00  0.00     0.163 HD
BRANCH   4   7
HETATM    7  C8  FXV A 401       2.754  18.246  16.551  1.00 41.70     0.013 A 
HETATM    8  C7  FXV A 401       4.149  18.679  16.576  1.00 39.89     0.072 A 
HETATM    9  C12 FXV A 401       4.770  19.119  15.359  1.00 37.02    -0.010 A 
HETATM   10  C11 FXV A 401       4.067  19.151  14.104  1.00 37.95    -0.029 A 
HETATM   11  C10 FXV A 401       2.699  18.719  14.095  1.00 41.02     0.012 A 
HETATM   12  C9  FXV A 401       2.056  18.278  15.290  1.00 45.36     0.014 A 
BRANCH  10  13
HETATM   13  C2  FXV A 401       4.739  19.633  12.854  1.00 38.25    -0.024 A 
HETATM   14  C1  FXV A 401       4.331  19.143  11.569  1.00 36.59     0.032 A 
HETATM   15  C6  FXV A 401       4.995  19.639  10.408  1.00 42.03     0.123 A 
HETATM   16  N1  FXV A 401       6.021  20.579  10.462  1.00 45.76    -0.247 N 
HETATM   17  C4  FXV A 401       6.420  21.056  11.686  1.00 42.09     0.123 A 
HETATM   18  C3  FXV A 401       5.802  20.607  12.899  1.00 41.91     0.032 A 
BRANCH  16  19
HETATM   19  O1  FXV A 401       6.608  21.005   9.308  1.00 49.39    -0.284 OA
ATOM     20  H1  FXV A 401       6.095  21.184   8.529  1.00  0.00     0.245 HD
ENDBRANCH  16  19
ENDBRANCH  10  13
ENDBRANCH   4   7
ENDBRANCH   1   3
BRANCH   1  21
HETATM   21  C17 FXV A 401      -0.317  18.751  19.678  1.00 42.56     0.112 C 
BRANCH  21  22
HETATM   22  C18 FXV A 401      -1.097  17.430  19.805  1.00 43.81     0.264 C 
HETATM   23  O32 FXV A 401      -1.514  17.008  20.828  1.00 48.57    -0.265 OA
BRANCH  22  24
HETATM   24  O19 FXV A 401      -1.256  16.825  18.597  1.00 45.98    -0.326 OA
HETATM   25  C34 FXV A 401      -1.346  15.405  18.459  1.00 47.93     0.213 C 
ENDBRANCH  22  24
ENDBRANCH  21  22
BRANCH  21  26
HETATM   26  C20 FXV A 401      -0.615  19.459  18.279  1.00 33.69     0.051 C 
BRANCH  26  27
HETATM   27  C28 FXV A 401      -0.949  20.958  18.334  1.00 32.34    -0.075 A 
HETATM   28  C23 FXV A 401      -2.320  21.465  18.408  1.00 30.63     0.072 A 
HETATM   29  C24 FXV A 401      -2.595  22.900  18.453  1.00 27.59    -0.030 A 
HETATM   30  C25 FXV A 401      -1.472  23.822  18.422  1.00 25.83     0.065 A 
HETATM   31  C26 FXV A 401      -0.128  23.334  18.350  1.00 21.52    -0.022 A 
HETATM   32  C27 FXV A 401       0.130  21.918  18.305  1.00 29.50    -0.001 A 
BRANCH  29  33
HETATM   33  C29 FXV A 401      -3.965  23.412  18.527  1.00 23.14     0.095 C 
HETATM   34  N31 FXV A 401      -4.990  22.582  18.265  1.00 29.79    -0.386 N 
ATOM     35 2H31 FXV A 401      -4.793  21.611  18.023  1.00  0.00     0.157 HD
ATOM     36 1H31 FXV A 401      -5.944  22.938  18.316  1.00  0.00     0.157 HD
BRANCH  33  37
HETATM   37  N30 FXV A 401      -4.223  24.684  18.844  1.00 27.97    -0.386 N 
ATOM     38 2H30 FXV A 401      -4.943  25.189  18.327  1.00  0.00     0.157 HD
ATOM     39 1H30 FXV A 401      -3.715  25.165  19.586  1.00  0.00     0.157 HD
ENDBRANCH  33  37
ENDBRANCH  29  33
ENDBRANCH  26  27
ENDBRANCH  21  26
ENDBRANCH   1  21
TORSDOF 11
