REMARK  11 active torsions:
REMARK  status: ('A' for Active; 'I' for Inactive)
REMARK    1  A    between atoms: C2_2  and  C11_11 
REMARK    2  A    between atoms: N1_5  and  O1_38 
REMARK    3  A    between atoms: C8_8  and  C13_13 
REMARK       I    between atoms: C13_13  and  N14_14 
REMARK    4  A    between atoms: N14_14  and  C15_16 
REMARK    5  A    between atoms: C15_16  and  C17_18 
REMARK    6  A    between atoms: C17_18  and  C18_19 
REMARK    7  A    between atoms: C17_18  and  C20_21 
REMARK    8  A    between atoms: C18_19  and  O19_20 
REMARK    9  A    between atoms: C20_21  and  C28_27 
REMARK   10  A    between atoms: C24_23  and  C29_28 
REMARK   11  A    between atoms: C29_28  and  N30_29 
ROOT
HETATM    1  C15 FXV A 401      -1.688  16.422  17.325  1.00 40.77     0.094 C 
HETATM    2  C16 FXV A 401      -1.211  15.035  17.809  1.00 45.08     0.033 C 
ENDROOT
BRANCH   1   3
HETATM    3  N14 FXV A 401      -0.643  16.979  16.503  1.00 42.14    -0.352 N 
HETATM    4  C13 FXV A 401       0.595  17.245  16.963  1.00 41.97     0.248 C 
HETATM    5  O33 FXV A 401       0.929  17.044  18.146  1.00 47.23    -0.268 OA
ATOM      6  H14 FXV A 401      -0.851  17.182  15.525  1.00  0.00     0.163 HD
BRANCH   4   7
HETATM    7  C8  FXV A 401       1.519  17.761  15.959  1.00 41.70     0.013 A 
HETATM    8  C7  FXV A 401       2.705  18.553  16.276  1.00 39.89     0.072 A 
HETATM    9  C12 FXV A 401       3.537  19.031  15.209  1.00 37.02    -0.010 A 
HETATM   10  C11 FXV A 401       3.247  18.759  13.827  1.00 37.95    -0.029 A 
HETATM   11  C10 FXV A 401       2.081  17.978  13.531  1.00 41.02     0.012 A 
HETATM   12  C9  FXV A 401       1.235  17.491  14.572  1.00 45.36     0.014 A 
BRANCH  10  13
HETATM   13  C2  FXV A 401       4.126  19.289  12.734  1.00 38.25    -0.024 A 
HETATM   14  C1  FXV A 401       5.452  19.753  13.022  1.00 36.59     0.032 A 
HETATM   15  C6  FXV A 401       6.253  20.239  11.946  1.00 42.03     0.123 A 
HETATM   16  N1  FXV A 401       5.808  20.284  10.627  1.00 45.76    -0.247 N 
HETATM   17  C4  FXV A 401       4.541  19.842  10.338  1.00 42.09     0.123 A 
HETATM   18  C3  FXV A 401       3.675  19.338  11.365  1.00 41.91     0.032 A 
BRANCH  16  19
HETATM   19  O1  FXV A 401       6.632  20.764   9.653  1.00 49.39    -0.284 OA
ATOM     20  H1  FXV A 401       6.410  20.682   8.733  1.00  0.00     0.245 HD
ENDBRANCH  16  19
ENDBRANCH  10  13
ENDBRANCH   4   7
ENDBRANCH   1   3
BRANCH   1  21
HETATM   21  C17 FXV A 401      -3.018  16.396  16.484  1.00 42.56     0.112 C 
BRANCH  21  22
HETATM   22  C18 FXV A 401      -2.708  15.962  15.040  1.00 43.81     0.264 C 
HETATM   23  O32 FXV A 401      -2.468  16.718  14.163  1.00 48.57    -0.265 OA
BRANCH  22  24
HETATM   24  O19 FXV A 401      -2.731  14.608  14.909  1.00 45.98    -0.326 OA
HETATM   25  C34 FXV A 401      -1.742  13.896  14.161  1.00 47.93     0.213 C 
ENDBRANCH  22  24
ENDBRANCH  21  22
BRANCH  21  26
HETATM   26  C20 FXV A 401      -3.820  17.776  16.507  1.00 33.69     0.051 C 
BRANCH  26  27
HETATM   27  C28 FXV A 401      -2.969  19.056  16.487  1.00 32.34    -0.075 A 
HETATM   28  C23 FXV A 401      -2.032  19.404  17.556  1.00 30.63     0.072 A 
HETATM   29  C24 FXV A 401      -1.244  20.634  17.500  1.00 27.59    -0.030 A 
HETATM   30  C25 FXV A 401      -1.412  21.514  16.356  1.00 25.83     0.065 A 
HETATM   31  C26 FXV A 401      -2.326  21.180  15.306  1.00 21.52    -0.022 A 
HETATM   32  C27 FXV A 401      -3.098  19.965  15.372  1.00 29.50    -0.001 A 
BRANCH  29  33
HETATM   33  C29 FXV A 401      -0.305  20.987  18.568  1.00 23.14     0.095 C 
HETATM   34  N31 FXV A 401       0.537  20.049  19.036  1.00 29.79    -0.386 N 
ATOM     35 2H31 FXV A 401       0.509  19.111  18.636  1.00  0.00     0.157 HD
ATOM     36 1H31 FXV A 401       1.191  20.295  19.779  1.00  0.00     0.157 HD
BRANCH  33  37
HETATM   37  N30 FXV A 401      -0.267  22.216  19.091  1.00 27.97    -0.386 N 
ATOM     38 2H30 FXV A 401      -0.744  22.394  19.975  1.00  0.00     0.157 HD
ATOM     39 1H30 FXV A 401       0.224  22.981  18.628  1.00  0.00     0.157 HD
ENDBRANCH  33  37
ENDBRANCH  29  33
ENDBRANCH  26  27
ENDBRANCH  21  26
ENDBRANCH   1  21
TORSDOF 11
