REMARK  11 active torsions:
REMARK  status: ('A' for Active; 'I' for Inactive)
REMARK    1  A    between atoms: C2_2  and  C11_11 
REMARK    2  A    between atoms: N1_5  and  O1_38 
REMARK    3  A    between atoms: C8_8  and  C13_13 
REMARK       I    between atoms: C13_13  and  N14_14 
REMARK    4  A    between atoms: N14_14  and  C15_16 
REMARK    5  A    between atoms: C15_16  and  C17_18 
REMARK    6  A    between atoms: C17_18  and  C18_19 
REMARK    7  A    between atoms: C17_18  and  C20_21 
REMARK    8  A    between atoms: C18_19  and  O19_20 
REMARK    9  A    between atoms: C20_21  and  C28_27 
REMARK   10  A    between atoms: C24_23  and  C29_28 
REMARK   11  A    between atoms: C29_28  and  N30_29 
ROOT
HETATM    1  C15 FXV A 401      -2.089  17.585  18.049  1.00 40.77     0.094 C 
HETATM    2  C16 FXV A 401      -3.234  16.838  17.331  1.00 45.08     0.033 C 
ENDROOT
BRANCH   1   3
HETATM    3  N14 FXV A 401      -1.071  17.867  17.069  1.00 42.14    -0.352 N 
HETATM    4  C13 FXV A 401      -0.215  16.935  16.606  1.00 41.97     0.248 C 
HETATM    5  O33 FXV A 401      -0.228  15.755  17.004  1.00 47.23    -0.268 OA
ATOM      6  H14 FXV A 401      -0.994  18.818  16.709  1.00  0.00     0.163 HD
BRANCH   4   7
HETATM    7  C8  FXV A 401       0.708  17.413  15.583  1.00 41.70     0.013 A 
HETATM    8  C7  FXV A 401       0.940  16.730  14.313  1.00 39.89     0.072 A 
HETATM    9  C12 FXV A 401       1.888  17.276  13.384  1.00 37.02    -0.010 A 
HETATM   10  C11 FXV A 401       2.625  18.480  13.655  1.00 37.95    -0.029 A 
HETATM   11  C10 FXV A 401       2.384  19.143  14.904  1.00 41.02     0.012 A 
HETATM   12  C9  FXV A 401       1.449  18.621  15.847  1.00 45.36     0.014 A 
BRANCH  10  13
HETATM   13  C2  FXV A 401       3.622  19.015  12.671  1.00 38.25    -0.024 A 
HETATM   14  C1  FXV A 401       4.984  19.241  13.059  1.00 36.59     0.032 A 
HETATM   15  C6  FXV A 401       5.897  19.743  12.085  1.00 42.03     0.123 A 
HETATM   16  N1  FXV A 401       5.529  20.023  10.771  1.00 45.76    -0.247 N 
HETATM   17  C4  FXV A 401       4.228  19.809  10.387  1.00 42.09     0.123 A 
HETATM   18  C3  FXV A 401       3.251  19.307  11.308  1.00 41.91     0.032 A 
BRANCH  16  19
HETATM   19  O1  FXV A 401       6.458  20.501   9.897  1.00 49.39    -0.284 OA
ATOM     20  H1  FXV A 401       6.307  20.491   8.959  1.00  0.00     0.245 HD
ENDBRANCH  16  19
ENDBRANCH  10  13
ENDBRANCH   4   7
ENDBRANCH   1   3
BRANCH   1  21
HETATM   21  C17 FXV A 401      -2.519  18.943  18.721  1.00 42.56     0.112 C 
BRANCH  21  22
HETATM   22  C18 FXV A 401      -2.870  19.971  17.629  1.00 43.81     0.264 C 
HETATM   23  O32 FXV A 401      -3.975  20.297  17.364  1.00 48.57    -0.265 OA
BRANCH  22  24
HETATM   24  O19 FXV A 401      -1.753  20.460  17.026  1.00 45.98    -0.326 OA
HETATM   25  C34 FXV A 401      -1.803  21.168  15.784  1.00 47.93     0.213 C 
ENDBRANCH  22  24
ENDBRANCH  21  22
BRANCH  21  26
HETATM   26  C20 FXV A 401      -1.434  19.531  19.732  1.00 33.69     0.051 C 
BRANCH  26  27
HETATM   27  C28 FXV A 401       0.002  19.010  19.565  1.00 32.34    -0.075 A 
HETATM   28  C23 FXV A 401       0.387  17.629  19.862  1.00 30.63     0.072 A 
HETATM   29  C24 FXV A 401       1.766  17.175  19.694  1.00 27.59    -0.030 A 
HETATM   30  C25 FXV A 401       2.758  18.129  19.226  1.00 25.83     0.065 A 
HETATM   31  C26 FXV A 401       2.390  19.481  18.934  1.00 21.52    -0.022 A 
HETATM   32  C27 FXV A 401       1.028  19.917  19.103  1.00 29.50    -0.001 A 
BRANCH  29  33
HETATM   33  C29 FXV A 401       2.155  15.794  19.989  1.00 23.14     0.095 C 
HETATM   34  N31 FXV A 401       3.154  15.567  20.861  1.00 29.79    -0.386 N 
ATOM     35 2H31 FXV A 401       3.618  16.360  21.303  1.00  0.00     0.157 HD
ATOM     36 1H31 FXV A 401       3.425  14.605  21.067  1.00  0.00     0.157 HD
BRANCH  33  37
HETATM   37  N30 FXV A 401       1.547  14.754  19.410  1.00 27.97    -0.386 N 
ATOM     38 2H30 FXV A 401       1.604  13.837  19.852  1.00  0.00     0.157 HD
ATOM     39 1H30 FXV A 401       1.031  14.855  18.536  1.00  0.00     0.157 HD
ENDBRANCH  33  37
ENDBRANCH  29  33
ENDBRANCH  26  27
ENDBRANCH  21  26
ENDBRANCH   1  21
TORSDOF 11
