REMARK  11 active torsions:
REMARK  status: ('A' for Active; 'I' for Inactive)
REMARK    1  A    between atoms: C2_2  and  C11_11 
REMARK    2  A    between atoms: N1_5  and  O1_38 
REMARK    3  A    between atoms: C8_8  and  C13_13 
REMARK       I    between atoms: C13_13  and  N14_14 
REMARK    4  A    between atoms: N14_14  and  C15_16 
REMARK    5  A    between atoms: C15_16  and  C17_18 
REMARK    6  A    between atoms: C17_18  and  C18_19 
REMARK    7  A    between atoms: C17_18  and  C20_21 
REMARK    8  A    between atoms: C18_19  and  O19_20 
REMARK    9  A    between atoms: C20_21  and  C28_27 
REMARK   10  A    between atoms: C24_23  and  C29_28 
REMARK   11  A    between atoms: C29_28  and  N30_29 
ROOT
HETATM    1  C15 FXV A 401      -1.455  17.700  18.118  1.00 40.77     0.094 C 
HETATM    2  C16 FXV A 401      -1.786  16.206  17.912  1.00 45.08     0.033 C 
ENDROOT
BRANCH   1   3
HETATM    3  N14 FXV A 401      -0.403  18.045  17.196  1.00 42.14    -0.352 N 
HETATM    4  C13 FXV A 401       0.789  17.418  17.168  1.00 41.97     0.248 C 
HETATM    5  O33 FXV A 401       1.081  16.497  17.955  1.00 47.23    -0.268 OA
ATOM      6  H14 FXV A 401      -0.569  18.801  16.531  1.00  0.00     0.163 HD
BRANCH   4   7
HETATM    7  C8  FXV A 401       1.698  17.886  16.128  1.00 41.70     0.013 A 
HETATM    8  C7  FXV A 401       2.981  18.530  16.399  1.00 39.89     0.072 A 
HETATM    9  C12 FXV A 401       3.790  18.973  15.300  1.00 37.02    -0.010 A 
HETATM   10  C11 FXV A 401       3.387  18.806  13.930  1.00 37.95    -0.029 A 
HETATM   11  C10 FXV A 401       2.127  18.168  13.679  1.00 41.02     0.012 A 
HETATM   12  C9  FXV A 401       1.300  17.719  14.752  1.00 45.36     0.014 A 
BRANCH  10  13
HETATM   13  C2  FXV A 401       4.247  19.296  12.805  1.00 38.25    -0.024 A 
HETATM   14  C1  FXV A 401       3.887  19.036  11.441  1.00 36.59     0.032 A 
HETATM   15  C6  FXV A 401       4.734  19.531  10.405  1.00 42.03     0.123 A 
HETATM   16  N1  FXV A 401       5.895  20.257  10.655  1.00 45.76    -0.247 N 
HETATM   17  C4  FXV A 401       6.251  20.514  11.956  1.00 42.09     0.123 A 
HETATM   18  C3  FXV A 401       5.452  20.050  13.052  1.00 41.91     0.032 A 
BRANCH  16  19
HETATM   19  O1  FXV A 401       6.654  20.696   9.612  1.00 49.39    -0.284 OA
ATOM     20  H1  FXV A 401       6.263  20.919   8.775  1.00  0.00     0.245 HD
ENDBRANCH  16  19
ENDBRANCH  10  13
ENDBRANCH   4   7
ENDBRANCH   1   3
BRANCH   1  21
HETATM   21  C17 FXV A 401      -2.668  18.675  17.874  1.00 42.56     0.112 C 
BRANCH  21  22
HETATM   22  C18 FXV A 401      -3.789  17.927  17.129  1.00 43.81     0.264 C 
HETATM   23  O32 FXV A 401      -4.793  17.568  17.641  1.00 48.57    -0.265 OA
BRANCH  22  24
HETATM   24  O19 FXV A 401      -3.484  17.747  15.816  1.00 45.98    -0.326 OA
HETATM   25  C34 FXV A 401      -3.928  18.648  14.798  1.00 47.93     0.213 C 
ENDBRANCH  22  24
ENDBRANCH  21  22
BRANCH  21  26
HETATM   26  C20 FXV A 401      -2.269  20.016  17.108  1.00 33.69     0.051 C 
BRANCH  26  27
HETATM   27  C28 FXV A 401      -1.890  21.215  17.992  1.00 32.34    -0.075 A 
HETATM   28  C23 FXV A 401      -1.988  22.602  17.533  1.00 30.63     0.072 A 
HETATM   29  C24 FXV A 401      -1.613  23.715  18.405  1.00 27.59    -0.030 A 
HETATM   30  C25 FXV A 401      -1.135  23.416  19.744  1.00 25.83     0.065 A 
HETATM   31  C26 FXV A 401      -1.037  22.062  20.199  1.00 21.52    -0.022 A 
HETATM   32  C27 FXV A 401      -1.408  20.974  19.332  1.00 29.50    -0.001 A 
BRANCH  29  33
HETATM   33  C29 FXV A 401      -1.709  25.104  17.951  1.00 23.14     0.095 C 
HETATM   34  N31 FXV A 401      -0.612  25.882  17.984  1.00 29.79    -0.386 N 
ATOM     35 2H31 FXV A 401       0.267  25.488  18.320  1.00  0.00     0.157 HD
ATOM     36 1H31 FXV A 401      -0.678  26.849  17.668  1.00  0.00     0.157 HD
BRANCH  33  37
HETATM   37  N30 FXV A 401      -2.859  25.621  17.510  1.00 27.97    -0.386 N 
ATOM     38 2H30 FXV A 401      -3.047  25.633  16.508  1.00  0.00     0.157 HD
ATOM     39 1H30 FXV A 401      -3.553  26.006  18.151  1.00  0.00     0.157 HD
ENDBRANCH  33  37
ENDBRANCH  29  33
ENDBRANCH  26  27
ENDBRANCH  21  26
ENDBRANCH   1  21
TORSDOF 11
