REMARK  7 active torsions:
REMARK  status: ('A' for Active; 'I' for Inactive)
REMARK    1  A    between atoms: O13_4  and  C10_17 
REMARK    2  A    between atoms: O13_4  and  C14_20 
REMARK    3  A    between atoms: N16_7  and  C15_21 
REMARK    4  A    between atoms: N16_7  and  C17_23 
REMARK    5  A    between atoms: C5_12  and  C6_13 
REMARK    6  A    between atoms: C6_13  and  C7_14 
REMARK    7  A    between atoms: C14_20  and  C15_21 
ROOT
HETATM    1  C7  BRL A   1      11.863  -8.824  11.664  1.00 49.32    -0.078 A 
HETATM    2  C8  BRL A   1      10.579  -8.229  12.014  1.00 47.70     0.063 A 
HETATM    3  C9  BRL A   1      10.518  -6.854  12.393  1.00 48.79     0.010 A 
HETATM    4  C10 BRL A   1      11.713  -6.041  12.421  1.00 52.03     0.046 A 
HETATM    5  C11 BRL A   1      12.982  -6.632  11.987  1.00 49.87     0.091 A 
HETATM    6  C12 BRL A   1      13.058  -8.012  11.616  1.00 46.23    -0.017 A 
ENDROOT
BRANCH   4   7
HETATM    7  O13 BRL A   1      11.434  -4.737  12.864  1.00 55.24    -0.354 OA
BRANCH   7   8
HETATM    8  C14 BRL A   1      10.846  -3.564  12.196  1.00 58.92     0.195 C 
BRANCH   8   9
HETATM    9  C15 BRL A   1      11.862  -3.241  11.080  1.00 57.91     0.150 C 
BRANCH   9  10
HETATM   10  N16 BRL A   1      11.391  -2.601   9.774  1.00 62.73    -0.373 N 
HETATM   11  C16 BRL A   1      11.992  -1.191   9.688  1.00 66.67     0.150 C 
BRANCH  10  12
HETATM   12  C17 BRL A   1      10.347  -3.208   8.734  1.00 58.83     0.082 A 
HETATM   13  N18 BRL A   1       9.152  -3.781   9.147  1.00 56.96    -0.356 N 
HETATM   14  C19 BRL A   1       8.210  -4.292   8.310  1.00 58.44     0.089 A 
ATOM     15  H18 BRL A   1       8.967  -3.821  10.150  1.00  0.00     0.166 HD
HETATM   16  C20 BRL A   1       8.410  -4.273   6.877  1.00 56.70     0.013 A 
HETATM   17  C21 BRL A   1       9.619  -3.708   6.359  1.00 56.41    -0.018 A 
HETATM   18  C22 BRL A   1      10.589  -3.178   7.276  1.00 57.64     0.103 A 
ENDBRANCH  10  12
ENDBRANCH   9  10
ENDBRANCH   8   9
ENDBRANCH   7   8
ENDBRANCH   4   7
BRANCH   1  19
HETATM   19  C6  BRL A   1      12.028 -10.302  11.374  1.00 49.65     0.059 C 
BRANCH  19  20
HETATM   20  C5  BRL A   1      11.035 -10.984  10.340  1.00 51.51     0.153 A 
HETATM   21  S1  BRL A   1       9.751  -9.827   9.679  1.00 50.57    -0.054 SA
HETATM   22  C2  BRL A   1       8.526 -11.038  10.246  1.00 50.68     0.287 A 
HETATM   23  O2  BRL A   1       7.317 -10.833  10.138  1.00 52.47    -0.260 OA
HETATM   24  N3  BRL A   1       8.973 -12.153  10.802  1.00 50.49    -0.287 N 
HETATM   25  C4  BRL A   1      10.310 -12.232  10.864  1.00 50.41     0.239 A 
ATOM     26  H3  BRL A   1       8.356 -12.886  11.153  1.00  0.00     0.172 HD
HETATM   27  O4  BRL A   1      10.915 -13.237  11.272  1.00 50.76    -0.272 OA
ENDBRANCH  19  20
ENDBRANCH   1  19
TORSDOF 7
