REMARK  7 active torsions:
REMARK  status: ('A' for Active; 'I' for Inactive)
REMARK    1  A    between atoms: O13_4  and  C10_17 
REMARK    2  A    between atoms: O13_4  and  C14_20 
REMARK    3  A    between atoms: N16_7  and  C15_21 
REMARK    4  A    between atoms: N16_7  and  C17_23 
REMARK    5  A    between atoms: C5_12  and  C6_13 
REMARK    6  A    between atoms: C6_13  and  C7_14 
REMARK    7  A    between atoms: C14_20  and  C15_21 
ROOT
HETATM    1  C7  BRL A   1      12.584  -3.821  12.521  1.00 49.32    -0.078 A 
HETATM    2  C8  BRL A   1      12.458  -5.268  12.389  1.00 47.70     0.063 A 
HETATM    3  C9  BRL A   1      13.550  -6.107  12.760  1.00 48.79     0.010 A 
HETATM    4  C10 BRL A   1      14.775  -5.542  13.279  1.00 52.03     0.046 A 
HETATM    5  C11 BRL A   1      14.856  -4.093  13.483  1.00 49.87     0.091 A 
HETATM    6  C12 BRL A   1      13.772  -3.239  13.103  1.00 46.23    -0.017 A 
ENDROOT
BRANCH   4   7
HETATM    7  O13 BRL A   1      15.731  -6.540  13.537  1.00 55.24    -0.354 OA
BRANCH   7   8
HETATM    8  C14 BRL A   1      16.711  -7.224  12.677  1.00 58.92     0.195 C 
BRANCH   8   9
HETATM    9  C15 BRL A   1      15.939  -7.442  11.358  1.00 57.91     0.150 C 
BRANCH   9  10
HETATM   10  N16 BRL A   1      15.586  -8.857  10.900  1.00 62.73    -0.373 N 
HETATM   11  C16 BRL A   1      16.878  -9.546  10.437  1.00 66.67     0.150 C 
BRANCH  10  12
HETATM   12  C17 BRL A   1      14.127  -9.487  10.777  1.00 58.83     0.082 A 
HETATM   13  N18 BRL A   1      13.471  -9.581   9.557  1.00 56.96    -0.356 N 
HETATM   14  C19 BRL A   1      12.240 -10.130   9.382  1.00 58.44     0.089 A 
ATOM     15  H18 BRL A   1      13.948  -9.213   8.733  1.00  0.00     0.166 HD
HETATM   16  C20 BRL A   1      11.506 -10.665  10.508  1.00 56.70     0.013 A 
HETATM   17  C21 BRL A   1      12.101 -10.605  11.809  1.00 56.41    -0.018 A 
HETATM   18  C22 BRL A   1      13.404 -10.018  11.952  1.00 57.64     0.103 A 
ENDBRANCH  10  12
ENDBRANCH   9  10
ENDBRANCH   8   9
ENDBRANCH   7   8
ENDBRANCH   4   7
BRANCH   1  19
HETATM   19  C6  BRL A   1      11.520  -2.859  12.031  1.00 49.65     0.059 C 
BRANCH  19  20
HETATM   20  C5  BRL A   1      11.738  -2.139  10.633  1.00 51.51     0.153 A 
HETATM   21  S1  BRL A   1      10.577  -2.723   9.315  1.00 50.57    -0.054 SA
HETATM   22  C2  BRL A   1      12.055  -3.073   8.323  1.00 50.68     0.287 A 
HETATM   23  O2  BRL A   1      11.977  -3.588   7.208  1.00 52.47    -0.260 OA
HETATM   24  N3  BRL A   1      13.233  -2.774   8.847  1.00 50.49    -0.287 N 
HETATM   25  C4  BRL A   1      13.163  -2.232  10.071  1.00 50.41     0.239 A 
ATOM     26  H3  BRL A   1      14.116  -2.940   8.362  1.00  0.00     0.172 HD
HETATM   27  O4  BRL A   1      14.155  -1.807  10.686  1.00 50.76    -0.272 OA
ENDBRANCH  19  20
ENDBRANCH   1  19
TORSDOF 7
