REMARK  7 active torsions:
REMARK  status: ('A' for Active; 'I' for Inactive)
REMARK    1  A    between atoms: O13_4  and  C10_17 
REMARK    2  A    between atoms: O13_4  and  C14_20 
REMARK    3  A    between atoms: N16_7  and  C15_21 
REMARK    4  A    between atoms: N16_7  and  C17_23 
REMARK    5  A    between atoms: C5_12  and  C6_13 
REMARK    6  A    between atoms: C6_13  and  C7_14 
REMARK    7  A    between atoms: C14_20  and  C15_21 
ROOT
HETATM    1  C7  BRL A   1      14.982  -5.090  12.734  1.00 49.32    -0.078 A 
HETATM    2  C8  BRL A   1      14.696  -5.542  11.377  1.00 47.70     0.063 A 
HETATM    3  C9  BRL A   1      15.322  -6.725  10.881  1.00 48.79     0.010 A 
HETATM    4  C10 BRL A   1      16.224  -7.489  11.713  1.00 52.03     0.046 A 
HETATM    5  C11 BRL A   1      16.437  -7.067  13.101  1.00 49.87     0.091 A 
HETATM    6  C12 BRL A   1      15.825  -5.876  13.606  1.00 46.23    -0.017 A 
ENDROOT
BRANCH   4   7
HETATM    7  O13 BRL A   1      16.760  -8.585  11.015  1.00 55.24    -0.354 OA
BRANCH   7   8
HETATM    8  C14 BRL A   1      16.235  -9.928  10.719  1.00 58.92     0.195 C 
BRANCH   8   9
HETATM    9  C15 BRL A   1      14.814  -9.647  10.185  1.00 57.91     0.150 C 
BRANCH   9  10
HETATM   10  N16 BRL A   1      13.596  -9.904  11.073  1.00 62.73    -0.373 N 
HETATM   11  C16 BRL A   1      13.988  -9.591  12.524  1.00 66.67     0.150 C 
BRANCH  10  12
HETATM   12  C17 BRL A   1      12.198 -10.523  10.623  1.00 58.83     0.082 A 
HETATM   13  N18 BRL A   1      11.125  -9.719  10.261  1.00 56.96    -0.356 N 
HETATM   14  C19 BRL A   1       9.917 -10.185   9.845  1.00 58.44     0.089 A 
ATOM     15  H18 BRL A   1      11.252  -8.708  10.311  1.00  0.00     0.166 HD
HETATM   16  C20 BRL A   1       9.667 -11.608   9.757  1.00 56.70     0.013 A 
HETATM   17  C21 BRL A   1      10.715 -12.514  10.118  1.00 56.41    -0.018 A 
HETATM   18  C22 BRL A   1      11.976 -11.983  10.552  1.00 57.64     0.103 A 
ENDBRANCH  10  12
ENDBRANCH   9  10
ENDBRANCH   8   9
ENDBRANCH   7   8
ENDBRANCH   4   7
BRANCH   1  19
HETATM   19  C6  BRL A   1      14.458  -3.780  13.287  1.00 49.65     0.059 C 
BRANCH  19  20
HETATM   20  C5  BRL A   1      13.166  -3.142  12.621  1.00 51.51     0.153 A 
HETATM   21  S1  BRL A   1      11.698  -4.270  12.632  1.00 50.57    -0.054 SA
HETATM   22  C2  BRL A   1      11.623  -4.011  10.839  1.00 50.68     0.287 A 
HETATM   23  O2  BRL A   1      10.794  -4.588  10.137  1.00 52.47    -0.260 OA
HETATM   24  N3  BRL A   1      12.509  -3.188  10.298  1.00 50.49    -0.287 N 
HETATM   25  C4  BRL A   1      13.356  -2.644  11.182  1.00 50.41     0.239 A 
ATOM     26  H3  BRL A   1      12.543  -2.988   9.298  1.00  0.00     0.172 HD
HETATM   27  O4  BRL A   1      14.200  -1.784  10.876  1.00 50.76    -0.272 OA
ENDBRANCH  19  20
ENDBRANCH   1  19
TORSDOF 7
