REMARK  7 active torsions:
REMARK  status: ('A' for Active; 'I' for Inactive)
REMARK    1  A    between atoms: O13_4  and  C10_17 
REMARK    2  A    between atoms: O13_4  and  C14_20 
REMARK    3  A    between atoms: N16_7  and  C15_21 
REMARK    4  A    between atoms: N16_7  and  C17_23 
REMARK    5  A    between atoms: C5_12  and  C6_13 
REMARK    6  A    between atoms: C6_13  and  C7_14 
REMARK    7  A    between atoms: C14_20  and  C15_21 
ROOT
HETATM    1  C7  BRL A   1      13.219 -10.369  10.754  1.00 49.32    -0.078 A 
HETATM    2  C8  BRL A   1      14.188  -9.620   9.962  1.00 47.70     0.063 A 
HETATM    3  C9  BRL A   1      15.125  -8.766  10.618  1.00 48.79     0.010 A 
HETATM    4  C10 BRL A   1      15.135  -8.647  12.059  1.00 52.03     0.046 A 
HETATM    5  C11 BRL A   1      14.209  -9.469  12.844  1.00 49.87     0.091 A 
HETATM    6  C12 BRL A   1      13.257 -10.320  12.197  1.00 46.23    -0.017 A 
ENDROOT
BRANCH   4   7
HETATM    7  O13 BRL A   1      16.103  -7.723  12.490  1.00 55.24    -0.354 OA
BRANCH   7   8
HETATM    8  C14 BRL A   1      16.065  -6.631  13.476  1.00 58.92     0.195 C 
BRANCH   8   9
HETATM    9  C15 BRL A   1      15.736  -5.389  12.623  1.00 57.91     0.150 C 
BRANCH   9  10
HETATM   10  N16 BRL A   1      14.466  -4.584  12.897  1.00 62.73    -0.373 N 
HETATM   11  C16 BRL A   1      14.876  -3.235  13.506  1.00 66.67     0.150 C 
BRANCH  10  12
HETATM   12  C17 BRL A   1      12.961  -5.083  12.726  1.00 58.83     0.082 A 
HETATM   13  N18 BRL A   1      12.122  -5.262  13.817  1.00 56.96    -0.356 N 
HETATM   14  C19 BRL A   1      10.824  -5.660  13.736  1.00 58.44     0.089 A 
ATOM     15  H18 BRL A   1      12.506  -5.083  14.745  1.00  0.00     0.166 HD
HETATM   16  C20 BRL A   1      10.218  -5.937  12.452  1.00 56.70     0.013 A 
HETATM   17  C21 BRL A   1      11.011  -5.786  11.269  1.00 56.41    -0.018 A 
HETATM   18  C22 BRL A   1      12.377  -5.363  11.397  1.00 57.64     0.103 A 
ENDBRANCH  10  12
ENDBRANCH   9  10
ENDBRANCH   8   9
ENDBRANCH   7   8
ENDBRANCH   4   7
BRANCH   1  19
HETATM   19  C6  BRL A   1      12.115 -11.196  10.125  1.00 49.65     0.059 C 
BRANCH  19  20
HETATM   20  C5  BRL A   1      10.680 -11.181  10.805  1.00 51.51     0.153 A 
HETATM   21  S1  BRL A   1       9.414 -12.159   9.875  1.00 50.57    -0.054 SA
HETATM   22  C2  BRL A   1       8.412 -10.647   9.869  1.00 50.68     0.287 A 
HETATM   23  O2  BRL A   1       7.324 -10.596   9.295  1.00 52.47    -0.260 OA
HETATM   24  N3  BRL A   1       8.898  -9.583  10.489  1.00 50.49    -0.287 N 
HETATM   25  C4  BRL A   1      10.096  -9.783  11.055  1.00 50.41     0.239 A 
ATOM     26  H3  BRL A   1       8.404  -8.691  10.531  1.00  0.00     0.172 HD
HETATM   27  O4  BRL A   1      10.671  -8.931  11.752  1.00 50.76    -0.272 OA
ENDBRANCH  19  20
ENDBRANCH   1  19
TORSDOF 7
