REMARK  7 active torsions:
REMARK  status: ('A' for Active; 'I' for Inactive)
REMARK    1  A    between atoms: O13_4  and  C10_17 
REMARK    2  A    between atoms: O13_4  and  C14_20 
REMARK    3  A    between atoms: N16_7  and  C15_21 
REMARK    4  A    between atoms: N16_7  and  C17_23 
REMARK    5  A    between atoms: C5_12  and  C6_13 
REMARK    6  A    between atoms: C6_13  and  C7_14 
REMARK    7  A    between atoms: C14_20  and  C15_21 
ROOT
HETATM    1  C7  BRL A   1      11.586  -4.460  12.384  1.00 49.32    -0.078 A 
HETATM    2  C8  BRL A   1      10.405  -5.075  12.977  1.00 47.70     0.063 A 
HETATM    3  C9  BRL A   1      10.198  -6.481  12.840  1.00 48.79     0.010 A 
HETATM    4  C10 BRL A   1      11.153  -7.304  12.134  1.00 52.03     0.046 A 
HETATM    5  C11 BRL A   1      12.376  -6.683  11.615  1.00 49.87     0.091 A 
HETATM    6  C12 BRL A   1      12.589  -5.274  11.736  1.00 46.23    -0.017 A 
ENDROOT
BRANCH   4   7
HETATM    7  O13 BRL A   1      10.733  -8.644  12.080  1.00 55.24    -0.354 OA
BRANCH   7   8
HETATM    8  C14 BRL A   1       9.763  -9.348  11.225  1.00 58.92     0.195 C 
BRANCH   8   9
HETATM    9  C15 BRL A   1      10.642  -9.960  10.114  1.00 57.91     0.150 C 
BRANCH   9  10
HETATM   10  N16 BRL A   1      11.918 -10.720  10.476  1.00 62.73    -0.373 N 
HETATM   11  C16 BRL A   1      11.616 -12.224  10.402  1.00 66.67     0.150 C 
BRANCH  10  12
HETATM   12  C17 BRL A   1      13.293 -10.094  10.983  1.00 58.83     0.082 A 
HETATM   13  N18 BRL A   1      13.414  -9.515  12.239  1.00 56.96    -0.356 N 
HETATM   14  C19 BRL A   1      14.563  -8.987  12.739  1.00 58.44     0.089 A 
ATOM     15  H18 BRL A   1      12.581  -9.482  12.828  1.00  0.00     0.166 HD
HETATM   16  C20 BRL A   1      15.779  -8.995  11.956  1.00 56.70     0.013 A 
HETATM   17  C21 BRL A   1      15.748  -9.567  10.643  1.00 56.41    -0.018 A 
HETATM   18  C22 BRL A   1      14.515 -10.114  10.151  1.00 57.64     0.103 A 
ENDBRANCH  10  12
ENDBRANCH   9  10
ENDBRANCH   8   9
ENDBRANCH   7   8
ENDBRANCH   4   7
BRANCH   1  19
HETATM   19  C6  BRL A   1      11.811  -2.961  12.377  1.00 49.65     0.059 C 
BRANCH  19  20
HETATM   20  C5  BRL A   1      11.844  -2.208  10.980  1.00 51.51     0.153 A 
HETATM   21  S1  BRL A   1      10.633  -2.880   9.752  1.00 50.57    -0.054 SA
HETATM   22  C2  BRL A   1      12.047  -3.083   8.634  1.00 50.68     0.287 A 
HETATM   23  O2  BRL A   1      11.922  -3.589   7.520  1.00 52.47    -0.260 OA
HETATM   24  N3  BRL A   1      13.234  -2.683   9.064  1.00 50.49    -0.287 N 
HETATM   25  C4  BRL A   1      13.219  -2.164  10.299  1.00 50.41     0.239 A 
ATOM     26  H3  BRL A   1      14.084  -2.762   8.504  1.00  0.00     0.172 HD
HETATM   27  O4  BRL A   1      14.218  -1.658  10.838  1.00 50.76    -0.272 OA
ENDBRANCH  19  20
ENDBRANCH   1  19
TORSDOF 7
