REMARK  7 active torsions:
REMARK  status: ('A' for Active; 'I' for Inactive)
REMARK    1  A    between atoms: O13_4  and  C10_17 
REMARK    2  A    between atoms: O13_4  and  C14_20 
REMARK    3  A    between atoms: N16_7  and  C15_21 
REMARK    4  A    between atoms: N16_7  and  C17_23 
REMARK    5  A    between atoms: C5_12  and  C6_13 
REMARK    6  A    between atoms: C6_13  and  C7_14 
REMARK    7  A    between atoms: C14_20  and  C15_21 
ROOT
HETATM    1  C7  BRL A   1      15.650  -8.692  12.355  1.00 49.32    -0.078 A 
HETATM    2  C8  BRL A   1      14.550  -9.413  12.985  1.00 47.70     0.063 A 
HETATM    3  C9  BRL A   1      13.664 -10.190  12.180  1.00 48.79     0.010 A 
HETATM    4  C10 BRL A   1      13.852 -10.283  10.750  1.00 52.03     0.046 A 
HETATM    5  C11 BRL A   1      15.010  -9.618  10.144  1.00 49.87     0.091 A 
HETATM    6  C12 BRL A   1      15.899  -8.827  10.938  1.00 46.23    -0.017 A 
ENDROOT
BRANCH   4   7
HETATM    7  O13 BRL A   1      12.845 -11.058  10.150  1.00 55.24    -0.354 OA
BRANCH   7   8
HETATM    8  C14 BRL A   1      11.873 -12.019  10.696  1.00 58.92     0.195 C 
BRANCH   8   9
HETATM    9  C15 BRL A   1      10.547 -11.611  10.019  1.00 57.91     0.150 C 
BRANCH   9  10
HETATM   10  N16 BRL A   1       9.776 -10.389  10.516  1.00 62.73    -0.373 N 
HETATM   11  C16 BRL A   1       8.300 -10.566  10.132  1.00 66.67     0.150 C 
BRANCH  10  12
HETATM   12  C17 BRL A   1      10.388  -9.080  11.190  1.00 58.83     0.082 A 
HETATM   13  N18 BRL A   1      11.584  -8.525  10.755  1.00 56.96    -0.356 N 
HETATM   14  C19 BRL A   1      12.145  -7.398  11.270  1.00 58.44     0.089 A 
ATOM     15  H18 BRL A   1      12.077  -8.996   9.996  1.00  0.00     0.166 HD
HETATM   16  C20 BRL A   1      11.502  -6.684  12.352  1.00 56.70     0.013 A 
HETATM   17  C21 BRL A   1      10.266  -7.187  12.870  1.00 56.41    -0.018 A 
HETATM   18  C22 BRL A   1       9.706  -8.380  12.299  1.00 57.64     0.103 A 
ENDBRANCH  10  12
ENDBRANCH   9  10
ENDBRANCH   8   9
ENDBRANCH   7   8
ENDBRANCH   4   7
BRANCH   1  19
HETATM   19  C6  BRL A   1      16.555  -7.748  13.123  1.00 49.65     0.059 C 
BRANCH  19  20
HETATM   20  C5  BRL A   1      16.344  -6.185  12.941  1.00 51.51     0.153 A 
HETATM   21  S1  BRL A   1      15.352  -5.413  14.299  1.00 50.57    -0.054 SA
HETATM   22  C2  BRL A   1      14.263  -4.780  12.994  1.00 50.68     0.287 A 
HETATM   23  O2  BRL A   1      13.247  -4.137  13.257  1.00 52.47    -0.260 OA
HETATM   24  N3  BRL A   1      14.585  -5.048  11.739  1.00 50.49    -0.287 N 
HETATM   25  C4  BRL A   1      15.709  -5.767  11.607  1.00 50.41     0.239 A 
ATOM     26  H3  BRL A   1      14.028  -4.736  10.943  1.00  0.00     0.172 HD
HETATM   27  O4  BRL A   1      16.216  -6.043  10.508  1.00 50.76    -0.272 OA
ENDBRANCH  19  20
ENDBRANCH   1  19
TORSDOF 7
