HMD.pdb
  rDOCK(R)          3D
libRbt.so/2013.1/901 2013/11/27
 24 26  0  0  0  0  0  0  0  0999 V2000
   -0.8940   24.2310    8.6537 Br  0  0  0  0  0  0
   -4.1771   25.6381   12.6434 O   0  0  0  0  0  0
   -2.6786   32.3689   10.1574 O   0  0  0  0  0  0
   -2.5934   25.4738   10.4554 N   0  0  0  0  0  0
   -4.8480   27.7762   12.1712 N   0  0  0  0  0  0
   -1.3320   32.0707    8.3167 N   0  0  0  0  0  0
   -1.1062   29.8377    8.3819 N   0  0  0  0  0  0
   -0.0392   30.9918    6.6684 N   0  0  0  0  0  0
   -1.6679   25.6755    9.5150 C   0  0  0  0  0  0
   -1.4357   27.0066    9.3284 C   0  0  0  0  0  0
   -2.3016   27.6913   10.2228 C   0  0  0  0  0  0
   -3.0138   26.6691   10.9230 C   0  0  0  0  0  0
   -4.0499   26.6659   11.9649 C   0  0  0  0  0  0
   -4.8234   29.0651   11.4586 C   0  0  0  0  0  0
   -3.4580   29.7284   11.4582 C   0  0  0  0  0  0
   -2.5445   29.2142   10.3492 C   0  0  0  0  0  0
   -1.9547   30.1216    9.4625 C   0  0  0  0  0  0
   -2.0466   31.6352    9.3817 C   0  0  0  0  0  0
   -0.8005   30.9835    7.7458 C   0  0  0  0  0  0
   -2.9174   24.5952   10.7592 H   0  0  0  0  0  0
   -5.5193   27.6947   12.8867 H   0  0  0  0  0  0
   -0.7851   28.9420    8.1291 H   0  0  0  0  0  0
    0.1704   31.8431    6.2204 H   0  0  0  0  0  0
    0.3192   30.1468    6.3125 H   0  0  0  0  0  0
  1  9  1  0  0  0
  2 13  2  0  0  0
  3 18  2  0  0  0
  4  9  1  0  0  0
  4 12  1  0  0  0
  4 20  1  0  0  0
  5 13  1  0  0  0
  5 14  1  0  0  0
  5 21  1  0  0  0
  6 18  1  0  0  0
  6 19  2  0  0  0
  7 17  1  0  0  0
  7 19  1  0  0  0
  7 22  1  0  0  0
  8 19  1  0  0  0
  8 23  1  0  0  0
  8 24  1  0  0  0
  9 10  2  0  0  0
 10 11  1  0  0  0
 11 12  2  0  0  0
 11 16  1  0  0  0
 12 13  1  0  0  0
 14 15  1  0  0  0
 15 16  1  0  0  0
 16 17  2  0  0  0
 17 18  1  0  0  0
M  END
>  <CHROM.0>
32.76905498,40.74271231,27.90657457,0.11423968,-171.49886372,-61.11066012

>  <CHROM.1>
-2.11165787,27.69929376,9.69868196,-1.49964048,0.83551387,-0.10485989

>  <FORMUL>
      HMD    C11 H10 Br1 N5 O2

>  <HET>
 HMD  A 400      19

>  <HETNAM>
     HMD 4-(5-AMINO-4-OXO-4H-PYRAZOL-3-YL)-2-BROMO-4,5,6,7-TETRA
   2 HMD HYDRO-3AH-PYRROLO[2,3-C]AZEPIN-8-ONE

>  <HETSYN>
     HMD HYMENIALDISINE

>  <Name>
HMD.pdb

>  <RI>
3.93146e+07

>  <Rbt.Current_Directory>
/home/malgorzata/Desktop/rDOCK_IFD/Wyniki/2b_CDK2

>  <Rbt.Executable>
rbdock ($Id: //depot/dev/client3/rdock/2013.1/src/exe/rbdock.cxx#4 $)

>  <Rbt.Library>
libRbt.so (2013.1, Build901 2013/11/27)

>  <Rbt.Parameter_File>
/home/malgorzata/Desktop/rDock_2013.1_src/data/scripts/soft_docking.prm

>  <Rbt.Receptor>
cavity.prm

>  <SCORE>
-23.9124

>  <SCORE.INTER>
-25.537

>  <SCORE.INTER.CONST>
1

>  <SCORE.INTER.POLAR>
-1.16152

>  <SCORE.INTER.REPUL>
0.00635051

>  <SCORE.INTER.ROT>
0

>  <SCORE.INTER.VDW>
-27.0196

>  <SCORE.INTER.norm>
-1.34405

>  <SCORE.INTRA>
0

>  <SCORE.INTRA.DIHEDRAL>
0

>  <SCORE.INTRA.DIHEDRAL.0>
0

>  <SCORE.INTRA.POLAR>
0

>  <SCORE.INTRA.POLAR.0>
0

>  <SCORE.INTRA.REPUL>
0

>  <SCORE.INTRA.REPUL.0>
0

>  <SCORE.INTRA.VDW>
0

>  <SCORE.INTRA.VDW.0>
0

>  <SCORE.INTRA.norm>
0

>  <SCORE.RESTR>
0

>  <SCORE.RESTR.CAVITY>
0

>  <SCORE.RESTR.norm>
0

>  <SCORE.SYSTEM>
1.62465

>  <SCORE.SYSTEM.CONST>
0

>  <SCORE.SYSTEM.DIHEDRAL>
2.02659

>  <SCORE.SYSTEM.POLAR>
-0.553313

>  <SCORE.SYSTEM.REPUL>
0.8

>  <SCORE.SYSTEM.VDW>
-1.50738

>  <SCORE.SYSTEM.norm>
0.0855081

>  <SCORE.heavy>
19

>  <SCORE.norm>
-1.25855

$$$$
HMD.pdb
  rDOCK(R)          3D
libRbt.so/2013.1/901 2013/11/27
 24 26  0  0  0  0  0  0  0  0999 V2000
    2.6968   28.2764   12.7971 Br  0  0  0  0  0  0
   -1.9282   25.8792   14.0379 O   0  0  0  0  0  0
   -4.2912   29.6688    8.2253 O   0  0  0  0  0  0
    0.1393   27.2164   12.9152 N   0  0  0  0  0  0
   -3.2289   26.0282   12.1589 N   0  0  0  0  0  0
   -2.4408   30.7480    7.3876 N   0  0  0  0  0  0
   -0.9270   30.1369    8.9292 N   0  0  0  0  0  0
   -0.2158   31.4958    7.1817 N   0  0  0  0  0  0
    0.9168   28.1189   12.3131 C   0  0  0  0  0  0
    0.2221   28.8190   11.3710 C   0  0  0  0  0  0
   -1.0993   28.2970   11.3809 C   0  0  0  0  0  0
   -1.1019   27.2821   12.3870 C   0  0  0  0  0  0
   -2.1138   26.3535   12.9093 C   0  0  0  0  0  0
   -3.5955   26.5022   10.8134 C   0  0  0  0  0  0
   -3.6426   28.0152   10.6985 C   0  0  0  0  0  0
   -2.2745   28.6370   10.4334 C   0  0  0  0  0  0
   -2.1029   29.4896    9.3374 C   0  0  0  0  0  0
   -3.0861   29.9594    8.2799 C   0  0  0  0  0  0
   -1.1688   30.8217    7.7964 C   0  0  0  0  0  0
    0.4247   26.6018   13.6294 H   0  0  0  0  0  0
   -3.8590   25.3986   12.5780 H   0  0  0  0  0  0
   -0.0619   30.0964    9.3975 H   0  0  0  0  0  0
   -0.4174   31.9893    6.3540 H   0  0  0  0  0  0
    0.6968   31.5054    7.5508 H   0  0  0  0  0  0
  1  9  1  0  0  0
  2 13  2  0  0  0
  3 18  2  0  0  0
  4  9  1  0  0  0
  4 12  1  0  0  0
  4 20  1  0  0  0
  5 13  1  0  0  0
  5 14  1  0  0  0
  5 21  1  0  0  0
  6 18  1  0  0  0
  6 19  2  0  0  0
  7 17  1  0  0  0
  7 19  1  0  0  0
  7 22  1  0  0  0
  8 19  1  0  0  0
  8 23  1  0  0  0
  8 24  1  0  0  0
  9 10  2  0  0  0
 10 11  1  0  0  0
 11 12  2  0  0  0
 11 16  1  0  0  0
 12 13  1  0  0  0
 14 15  1  0  0  0
 15 16  1  0  0  0
 16 17  2  0  0  0
 17 18  1  0  0  0
M  END
>  <CHROM.0>
174.92962111,-45.68726669,-167.73224188,-112.22983887,127.84320482,-61.11066012

>  <CHROM.1>
-0.69067334,28.45879237,11.03776905,-0.83142121,-0.29280671,-0.87890752

>  <FORMUL>
      HMD    C11 H10 Br1 N5 O2

>  <HET>
 HMD  A 400      19

>  <HETNAM>
     HMD 4-(5-AMINO-4-OXO-4H-PYRAZOL-3-YL)-2-BROMO-4,5,6,7-TETRA
   2 HMD HYDRO-3AH-PYRROLO[2,3-C]AZEPIN-8-ONE

>  <HETSYN>
     HMD HYMENIALDISINE

>  <Name>
HMD.pdb

>  <RI>
3.93146e+07

>  <Rbt.Current_Directory>
/home/malgorzata/Desktop/rDOCK_IFD/Wyniki/2b_CDK2

>  <Rbt.Executable>
rbdock ($Id: //depot/dev/client3/rdock/2013.1/src/exe/rbdock.cxx#4 $)

>  <Rbt.Library>
libRbt.so (2013.1, Build901 2013/11/27)

>  <Rbt.Parameter_File>
/home/malgorzata/Desktop/rDock_2013.1_src/data/scripts/soft_docking.prm

>  <Rbt.Receptor>
cavity.prm

>  <SCORE>
-26.3484

>  <SCORE.INTER>
-27.5756

>  <SCORE.INTER.CONST>
1

>  <SCORE.INTER.POLAR>
-1.81992

>  <SCORE.INTER.REPUL>
0

>  <SCORE.INTER.ROT>
0

>  <SCORE.INTER.VDW>
-26.7879

>  <SCORE.INTER.norm>
-1.45135

>  <SCORE.INTRA>
0

>  <SCORE.INTRA.DIHEDRAL>
0

>  <SCORE.INTRA.DIHEDRAL.0>
0

>  <SCORE.INTRA.POLAR>
0

>  <SCORE.INTRA.POLAR.0>
0

>  <SCORE.INTRA.REPUL>
0

>  <SCORE.INTRA.REPUL.0>
0

>  <SCORE.INTRA.VDW>
0

>  <SCORE.INTRA.VDW.0>
0

>  <SCORE.INTRA.norm>
0

>  <SCORE.RESTR>
0

>  <SCORE.RESTR.CAVITY>
0

>  <SCORE.RESTR.norm>
0

>  <SCORE.SYSTEM>
1.22718

>  <SCORE.SYSTEM.CONST>
0

>  <SCORE.SYSTEM.DIHEDRAL>
2.03194

>  <SCORE.SYSTEM.POLAR>
-0.575851

>  <SCORE.SYSTEM.REPUL>
0.8

>  <SCORE.SYSTEM.VDW>
-1.8309

>  <SCORE.SYSTEM.norm>
0.0645883

>  <SCORE.heavy>
19

>  <SCORE.norm>
-1.38676

$$$$
HMD.pdb
  rDOCK(R)          3D
libRbt.so/2013.1/901 2013/11/27
 24 26  0  0  0  0  0  0  0  0999 V2000
   -2.3397   34.5058   12.7814 Br  0  0  0  0  0  0
   -5.5247   30.2097   13.0557 O   0  0  0  0  0  0
   -2.3684   28.7077    6.6128 O   0  0  0  0  0  0
   -3.6574   32.0854   12.4923 N   0  0  0  0  0  0
   -4.6531   28.6945   11.5761 N   0  0  0  0  0  0
   -0.8226   30.3759    6.2692 N   0  0  0  0  0  0
   -1.2404   31.6443    8.0743 N   0  0  0  0  0  0
    0.4321   32.3398    6.6165 N   0  0  0  0  0  0
   -2.8542   32.9661   11.8916 C   0  0  0  0  0  0
   -2.5181   32.5516   10.6363 C   0  0  0  0  0  0
   -3.1592   31.2980   10.4458 C   0  0  0  0  0  0
   -3.8780   31.0486   11.6554 C   0  0  0  0  0  0
   -4.7348   29.9561   12.1367 C   0  0  0  0  0  0
   -3.7765   28.2335   10.4859 C   0  0  0  0  0  0
   -3.8948   29.0672    9.2228 C   0  0  0  0  0  0
   -3.0272   30.3223    9.2521 C   0  0  0  0  0  0
   -2.1233   30.5627    8.2117 C   0  0  0  0  0  0
   -1.8139   29.7623    6.9588 C   0  0  0  0  0  0
   -0.5029   31.4755    6.9614 C   0  0  0  0  0  0
   -4.0291   32.1769   13.3992 H   0  0  0  0  0  0
   -5.2590   28.0172   11.9546 H   0  0  0  0  0  0
   -1.1714   32.4062    8.6940 H   0  0  0  0  0  0
    0.9587   32.1946    5.7974 H   0  0  0  0  0  0
    0.6033   33.1300    7.1782 H   0  0  0  0  0  0
  1  9  1  0  0  0
  2 13  2  0  0  0
  3 18  2  0  0  0
  4  9  1  0  0  0
  4 12  1  0  0  0
  4 20  1  0  0  0
  5 13  1  0  0  0
  5 14  1  0  0  0
  5 21  1  0  0  0
  6 18  1  0  0  0
  6 19  2  0  0  0
  7 17  1  0  0  0
  7 19  1  0  0  0
  7 22  1  0  0  0
  8 19  1  0  0  0
  8 23  1  0  0  0
  8 24  1  0  0  0
  9 10  2  0  0  0
 10 11  1  0  0  0
 11 12  2  0  0  0
 11 16  1  0  0  0
 12 13  1  0  0  0
 14 15  1  0  0  0
 15 16  1  0  0  0
 16 17  2  0  0  0
 17 18  1  0  0  0
M  END
>  <CHROM.0>
102.99425628,162.45448263,149.64499242,161.15542861,-164.21258707,-61.11066012

>  <CHROM.1>
-2.67544149,31.56361699,10.36599862,-1.88346145,-0.86012842,-2.36676342

>  <FORMUL>
      HMD    C11 H10 Br1 N5 O2

>  <HET>
 HMD  A 400      19

>  <HETNAM>
     HMD 4-(5-AMINO-4-OXO-4H-PYRAZOL-3-YL)-2-BROMO-4,5,6,7-TETRA
   2 HMD HYDRO-3AH-PYRROLO[2,3-C]AZEPIN-8-ONE

>  <HETSYN>
     HMD HYMENIALDISINE

>  <Name>
HMD.pdb

>  <RI>
3.93146e+07

>  <Rbt.Current_Directory>
/home/malgorzata/Desktop/rDOCK_IFD/Wyniki/2b_CDK2

>  <Rbt.Executable>
rbdock ($Id: //depot/dev/client3/rdock/2013.1/src/exe/rbdock.cxx#4 $)

>  <Rbt.Library>
libRbt.so (2013.1, Build901 2013/11/27)

>  <Rbt.Parameter_File>
/home/malgorzata/Desktop/rDock_2013.1_src/data/scripts/soft_docking.prm

>  <Rbt.Receptor>
cavity.prm

>  <SCORE>
-29.8432

>  <SCORE.INTER>
-31.0007

>  <SCORE.INTER.CONST>
1

>  <SCORE.INTER.POLAR>
-0.544035

>  <SCORE.INTER.REPUL>
0

>  <SCORE.INTER.ROT>
0

>  <SCORE.INTER.VDW>
-34.5509

>  <SCORE.INTER.norm>
-1.63161

>  <SCORE.INTRA>
0

>  <SCORE.INTRA.DIHEDRAL>
0

>  <SCORE.INTRA.DIHEDRAL.0>
0

>  <SCORE.INTRA.POLAR>
0

>  <SCORE.INTRA.POLAR.0>
0

>  <SCORE.INTRA.REPUL>
0

>  <SCORE.INTRA.REPUL.0>
0

>  <SCORE.INTRA.VDW>
0

>  <SCORE.INTRA.VDW.0>
0

>  <SCORE.INTRA.norm>
0

>  <SCORE.RESTR>
0.0489218

>  <SCORE.RESTR.CAVITY>
0.0489218

>  <SCORE.RESTR.norm>
0.00257483

>  <SCORE.SYSTEM>
1.10853

>  <SCORE.SYSTEM.CONST>
0

>  <SCORE.SYSTEM.DIHEDRAL>
2.02358

>  <SCORE.SYSTEM.POLAR>
-0.515045

>  <SCORE.SYSTEM.REPUL>
0.8

>  <SCORE.SYSTEM.VDW>
-2.15211

>  <SCORE.SYSTEM.norm>
0.0583435

>  <SCORE.heavy>
19

>  <SCORE.norm>
-1.57069

$$$$
HMD.pdb
  rDOCK(R)          3D
libRbt.so/2013.1/901 2013/11/27
 24 26  0  0  0  0  0  0  0  0999 V2000
    0.2441   25.1965    8.5373 Br  0  0  0  0  0  0
   -0.0613   30.3711    7.1935 O   0  0  0  0  0  0
   -5.6855   30.2222   11.8920 O   0  0  0  0  0  0
   -0.2638   27.9102    8.3005 N   0  0  0  0  0  0
   -1.3001   31.3689    8.8410 N   0  0  0  0  0  0
   -5.7351   28.0851   12.7410 N   0  0  0  0  0  0
   -4.0796   27.1687   11.5322 N   0  0  0  0  0  0
   -5.1745   25.8216   13.0791 N   0  0  0  0  0  0
   -0.7029   26.7619    8.8202 C   0  0  0  0  0  0
   -1.8538   26.9485    9.5280 C   0  0  0  0  0  0
   -2.1482   28.3364    9.4510 C   0  0  0  0  0  0
   -1.1080   28.9039    8.6522 C   0  0  0  0  0  0
   -0.7927   30.2614    8.1864 C   0  0  0  0  0  0
   -2.1772   31.4096   10.0236 C   0  0  0  0  0  0
   -3.4533   30.6047    9.8565 C   0  0  0  0  0  0
   -3.2700   29.1226   10.1704 C   0  0  0  0  0  0
   -4.1063   28.5053   11.1069 C   0  0  0  0  0  0
   -5.2530   29.0600   11.9337 C   0  0  0  0  0  0
   -5.0132   26.9881   12.4845 C   0  0  0  0  0  0
    0.5452   28.0157    7.7495 H   0  0  0  0  0  0
   -1.0417   32.2428    8.4686 H   0  0  0  0  0  0
   -3.4738   26.4730   11.1884 H   0  0  0  0  0  0
   -5.8646   25.7141   13.7730 H   0  0  0  0  0  0
   -4.6050   25.0586   12.8289 H   0  0  0  0  0  0
  1  9  1  0  0  0
  2 13  2  0  0  0
  3 18  2  0  0  0
  4  9  1  0  0  0
  4 12  1  0  0  0
  4 20  1  0  0  0
  5 13  1  0  0  0
  5 14  1  0  0  0
  5 21  1  0  0  0
  6 18  1  0  0  0
  6 19  2  0  0  0
  7 17  1  0  0  0
  7 19  1  0  0  0
  7 22  1  0  0  0
  8 19  1  0  0  0
  8 23  1  0  0  0
  8 24  1  0  0  0
  9 10  2  0  0  0
 10 11  1  0  0  0
 11 12  2  0  0  0
 11 16  1  0  0  0
 12 13  1  0  0  0
 14 15  1  0  0  0
 15 16  1  0  0  0
 16 17  2  0  0  0
 17 18  1  0  0  0
M  END
>  <CHROM.0>
112.56838968,-156.07912697,-179.80603506,46.26243596,153.59582077,-61.11066012

>  <CHROM.1>
-2.13164987,27.90721531,9.80662941,0.23124797,-0.66999283,2.91994989

>  <FORMUL>
      HMD    C11 H10 Br1 N5 O2

>  <HET>
 HMD  A 400      19

>  <HETNAM>
     HMD 4-(5-AMINO-4-OXO-4H-PYRAZOL-3-YL)-2-BROMO-4,5,6,7-TETRA
   2 HMD HYDRO-3AH-PYRROLO[2,3-C]AZEPIN-8-ONE

>  <HETSYN>
     HMD HYMENIALDISINE

>  <Name>
HMD.pdb

>  <RI>
3.93146e+07

>  <Rbt.Current_Directory>
/home/malgorzata/Desktop/rDOCK_IFD/Wyniki/2b_CDK2

>  <Rbt.Executable>
rbdock ($Id: //depot/dev/client3/rdock/2013.1/src/exe/rbdock.cxx#4 $)

>  <Rbt.Library>
libRbt.so (2013.1, Build901 2013/11/27)

>  <Rbt.Parameter_File>
/home/malgorzata/Desktop/rDock_2013.1_src/data/scripts/soft_docking.prm

>  <Rbt.Receptor>
cavity.prm

>  <SCORE>
-24.1374

>  <SCORE.INTER>
-25.1513

>  <SCORE.INTER.CONST>
1

>  <SCORE.INTER.POLAR>
-1.33572

>  <SCORE.INTER.REPUL>
0.00312969

>  <SCORE.INTER.ROT>
0

>  <SCORE.INTER.VDW>
-26.0256

>  <SCORE.INTER.norm>
-1.32376

>  <SCORE.INTRA>
0

>  <SCORE.INTRA.DIHEDRAL>
0

>  <SCORE.INTRA.DIHEDRAL.0>
0

>  <SCORE.INTRA.POLAR>
0

>  <SCORE.INTRA.POLAR.0>
0

>  <SCORE.INTRA.REPUL>
0

>  <SCORE.INTRA.REPUL.0>
0

>  <SCORE.INTRA.VDW>
0

>  <SCORE.INTRA.VDW.0>
0

>  <SCORE.INTRA.norm>
0

>  <SCORE.RESTR>
0

>  <SCORE.RESTR.CAVITY>
0

>  <SCORE.RESTR.norm>
0

>  <SCORE.SYSTEM>
1.01396

>  <SCORE.SYSTEM.CONST>
0

>  <SCORE.SYSTEM.DIHEDRAL>
2.03098

>  <SCORE.SYSTEM.POLAR>
-0.619677

>  <SCORE.SYSTEM.REPUL>
0.8

>  <SCORE.SYSTEM.VDW>
-1.89463

>  <SCORE.SYSTEM.norm>
0.0533661

>  <SCORE.heavy>
19

>  <SCORE.norm>
-1.27039

$$$$
HMD.pdb
  rDOCK(R)          3D
libRbt.so/2013.1/901 2013/11/27
 24 26  0  0  0  0  0  0  0  0999 V2000
   -3.0666   33.8776   13.3449 Br  0  0  0  0  0  0
   -5.9540   29.5036   12.2464 O   0  0  0  0  0  0
   -1.0925   28.8907    6.7948 O   0  0  0  0  0  0
   -4.1152   31.4801   12.4337 N   0  0  0  0  0  0
   -4.6290   28.2056   10.9031 N   0  0  0  0  0  0
    0.3898   30.6262    7.0801 N   0  0  0  0  0  0
   -0.5728   31.6502    8.8313 N   0  0  0  0  0  0
    1.3886   32.5622    7.9782 N   0  0  0  0  0  0
   -3.2317   32.4480   12.1804 C   0  0  0  0  0  0
   -2.5455   32.2009   11.0278 C   0  0  0  0  0  0
   -3.0378   30.9652   10.5283 C   0  0  0  0  0  0
   -4.0412   30.5500   11.4572 C   0  0  0  0  0  0
   -4.9317   29.3855   11.5579 C   0  0  0  0  0  0
   -3.4653   27.9052   10.0517 C   0  0  0  0  0  0
   -3.2856   28.8859    8.9070 C   0  0  0  0  0  0
   -2.5321   30.1487    9.3151 C   0  0  0  0  0  0
   -1.3960   30.5385    8.5976 C   0  0  0  0  0  0
   -0.7139   29.9076    7.3965 C   0  0  0  0  0  0
    0.4466   31.6390    7.9528 C   0  0  0  0  0  0
   -4.7228   31.4492   13.2076 H   0  0  0  0  0  0
   -5.2745   27.4719   11.0214 H   0  0  0  0  0  0
   -0.7179   32.3308    9.5277 H   0  0  0  0  0  0
    2.1244   32.5327    7.3248 H   0  0  0  0  0  0
    1.3557   33.2805    8.6506 H   0  0  0  0  0  0
  1  9  1  0  0  0
  2 13  2  0  0  0
  3 18  2  0  0  0
  4  9  1  0  0  0
  4 12  1  0  0  0
  4 20  1  0  0  0
  5 13  1  0  0  0
  5 14  1  0  0  0
  5 21  1  0  0  0
  6 18  1  0  0  0
  6 19  2  0  0  0
  7 17  1  0  0  0
  7 19  1  0  0  0
  7 22  1  0  0  0
  8 19  1  0  0  0
  8 23  1  0  0  0
  8 24  1  0  0  0
  9 10  2  0  0  0
 10 11  1  0  0  0
 11 12  2  0  0  0
 11 16  1  0  0  0
 12 13  1  0  0  0
 14 15  1  0  0  0
 15 16  1  0  0  0
 16 17  2  0  0  0
 17 18  1  0  0  0
M  END
>  <CHROM.0>
-65.50088912,135.29222663,53.58704965,154.51654839,-171.85180439,-61.11066012

>  <CHROM.1>
-2.56667537,31.25048841,10.61518473,-2.18412351,-0.67990975,-2.45675832

>  <FORMUL>
      HMD    C11 H10 Br1 N5 O2

>  <HET>
 HMD  A 400      19

>  <HETNAM>
     HMD 4-(5-AMINO-4-OXO-4H-PYRAZOL-3-YL)-2-BROMO-4,5,6,7-TETRA
   2 HMD HYDRO-3AH-PYRROLO[2,3-C]AZEPIN-8-ONE

>  <HETSYN>
     HMD HYMENIALDISINE

>  <Name>
HMD.pdb

>  <RI>
3.93146e+07

>  <Rbt.Current_Directory>
/home/malgorzata/Desktop/rDOCK_IFD/Wyniki/2b_CDK2

>  <Rbt.Executable>
rbdock ($Id: //depot/dev/client3/rdock/2013.1/src/exe/rbdock.cxx#4 $)

>  <Rbt.Library>
libRbt.so (2013.1, Build901 2013/11/27)

>  <Rbt.Parameter_File>
/home/malgorzata/Desktop/rDock_2013.1_src/data/scripts/soft_docking.prm

>  <Rbt.Receptor>
cavity.prm

>  <SCORE>
-29.4659

>  <SCORE.INTER>
-30.2607

>  <SCORE.INTER.CONST>
1

>  <SCORE.INTER.POLAR>
-0.884038

>  <SCORE.INTER.REPUL>
0

>  <SCORE.INTER.ROT>
0

>  <SCORE.INTER.VDW>
-32.6549

>  <SCORE.INTER.norm>
-1.59267

>  <SCORE.INTRA>
0

>  <SCORE.INTRA.DIHEDRAL>
0

>  <SCORE.INTRA.DIHEDRAL.0>
0

>  <SCORE.INTRA.POLAR>
0

>  <SCORE.INTRA.POLAR.0>
0

>  <SCORE.INTRA.REPUL>
0

>  <SCORE.INTRA.REPUL.0>
0

>  <SCORE.INTRA.VDW>
0

>  <SCORE.INTRA.VDW.0>
0

>  <SCORE.INTRA.norm>
0

>  <SCORE.RESTR>
0

>  <SCORE.RESTR.CAVITY>
0

>  <SCORE.RESTR.norm>
0

>  <SCORE.SYSTEM>
0.794766

>  <SCORE.SYSTEM.CONST>
0

>  <SCORE.SYSTEM.DIHEDRAL>
2.02637

>  <SCORE.SYSTEM.POLAR>
-0.555169

>  <SCORE.SYSTEM.REPUL>
0.8

>  <SCORE.SYSTEM.VDW>
-2.33084

>  <SCORE.SYSTEM.norm>
0.0418298

>  <SCORE.heavy>
19

>  <SCORE.norm>
-1.55084

$$$$
HMD.pdb
  rDOCK(R)          3D
libRbt.so/2013.1/901 2013/11/27
 24 26  0  0  0  0  0  0  0  0999 V2000
   -5.9611   32.7237   13.0488 Br  0  0  0  0  0  0
   -1.7119   32.2980    9.8179 O   0  0  0  0  0  0
   -2.8611   25.1415   10.9108 O   0  0  0  0  0  0
   -3.9194   31.9483   11.3435 N   0  0  0  0  0  0
   -1.7439   30.1482    9.0293 N   0  0  0  0  0  0
   -4.7497   25.0033   12.2164 N   0  0  0  0  0  0
   -5.1269   27.1909   12.5535 N   0  0  0  0  0  0
   -6.6013   25.6700   13.5122 N   0  0  0  0  0  0
   -4.8195   31.5180   12.2302 C   0  0  0  0  0  0
   -4.7464   30.1655   12.3913 C   0  0  0  0  0  0
   -3.7191   29.7155   11.5191 C   0  0  0  0  0  0
   -3.2191   30.8911   10.8787 C   0  0  0  0  0  0
   -2.1785   31.1526    9.8747 C   0  0  0  0  0  0
   -2.1909   28.7460    8.9698 C   0  0  0  0  0  0
   -2.0875   28.0226   10.3003 C   0  0  0  0  0  0
   -3.2927   28.2615   11.2054 C   0  0  0  0  0  0
   -3.9958   27.1686   11.7239 C   0  0  0  0  0  0
   -3.7772   25.6754   11.5554 C   0  0  0  0  0  0
   -5.5322   25.9286   12.7838 C   0  0  0  0  0  0
   -3.7872   32.8853   11.0721 H   0  0  0  0  0  0
   -1.0457   30.4033    8.3839 H   0  0  0  0  0  0
   -5.5560   28.0018   12.9107 H   0  0  0  0  0  0
   -6.8780   24.7378   13.6666 H   0  0  0  0  0  0
   -7.1224   26.4091   13.9013 H   0  0  0  0  0  0
  1  9  1  0  0  0
  2 13  2  0  0  0
  3 18  2  0  0  0
  4  9  1  0  0  0
  4 12  1  0  0  0
  4 20  1  0  0  0
  5 13  1  0  0  0
  5 14  1  0  0  0
  5 21  1  0  0  0
  6 18  1  0  0  0
  6 19  2  0  0  0
  7 17  1  0  0  0
  7 19  1  0  0  0
  7 22  1  0  0  0
  8 19  1  0  0  0
  8 23  1  0  0  0
  8 24  1  0  0  0
  9 10  2  0  0  0
 10 11  1  0  0  0
 11 12  2  0  0  0
 11 16  1  0  0  0
 12 13  1  0  0  0
 14 15  1  0  0  0
 15 16  1  0  0  0
 16 17  2  0  0  0
 17 18  1  0  0  0
M  END
>  <CHROM.0>
-174.90276991,9.68336199,130.44970893,44.22228559,158.89573615,-61.11066012

>  <CHROM.1>
-4.23506129,29.59549168,11.69308212,1.76373287,0.71260246,-0.02767098

>  <FORMUL>
      HMD    C11 H10 Br1 N5 O2

>  <HET>
 HMD  A 400      19

>  <HETNAM>
     HMD 4-(5-AMINO-4-OXO-4H-PYRAZOL-3-YL)-2-BROMO-4,5,6,7-TETRA
   2 HMD HYDRO-3AH-PYRROLO[2,3-C]AZEPIN-8-ONE

>  <HETSYN>
     HMD HYMENIALDISINE

>  <Name>
HMD.pdb

>  <RI>
3.93146e+07

>  <Rbt.Current_Directory>
/home/malgorzata/Desktop/rDOCK_IFD/Wyniki/2b_CDK2

>  <Rbt.Executable>
rbdock ($Id: //depot/dev/client3/rdock/2013.1/src/exe/rbdock.cxx#4 $)

>  <Rbt.Library>
libRbt.so (2013.1, Build901 2013/11/27)

>  <Rbt.Parameter_File>
/home/malgorzata/Desktop/rDock_2013.1_src/data/scripts/soft_docking.prm

>  <Rbt.Receptor>
cavity.prm

>  <SCORE>
-24.8347

>  <SCORE.INTER>
-26.119

>  <SCORE.INTER.CONST>
1

>  <SCORE.INTER.POLAR>
-0.599453

>  <SCORE.INTER.REPUL>
0

>  <SCORE.INTER.ROT>
0

>  <SCORE.INTER.VDW>
-29.4808

>  <SCORE.INTER.norm>
-1.37468

>  <SCORE.INTRA>
0

>  <SCORE.INTRA.DIHEDRAL>
0

>  <SCORE.INTRA.DIHEDRAL.0>
0

>  <SCORE.INTRA.POLAR>
0

>  <SCORE.INTRA.POLAR.0>
0

>  <SCORE.INTRA.REPUL>
0

>  <SCORE.INTRA.REPUL.0>
0

>  <SCORE.INTRA.VDW>
0

>  <SCORE.INTRA.VDW.0>
0

>  <SCORE.INTRA.norm>
0

>  <SCORE.RESTR>
0.0406566

>  <SCORE.RESTR.CAVITY>
0.0406566

>  <SCORE.RESTR.norm>
0.00213982

>  <SCORE.SYSTEM>
1.24361

>  <SCORE.SYSTEM.CONST>
0

>  <SCORE.SYSTEM.DIHEDRAL>
2.0238

>  <SCORE.SYSTEM.POLAR>
-0.619677

>  <SCORE.SYSTEM.REPUL>
0.8

>  <SCORE.SYSTEM.VDW>
-1.66139

>  <SCORE.SYSTEM.norm>
0.0654533

>  <SCORE.heavy>
19

>  <SCORE.norm>
-1.30709

$$$$
HMD.pdb
  rDOCK(R)          3D
libRbt.so/2013.1/901 2013/11/27
 24 26  0  0  0  0  0  0  0  0999 V2000
   -2.5935   34.6018   12.8062 Br  0  0  0  0  0  0
   -5.6057   30.1779   12.6279 O   0  0  0  0  0  0
   -1.5064   28.8388    6.7007 O   0  0  0  0  0  0
   -3.7559   32.1311   12.3344 N   0  0  0  0  0  0
   -4.4709   28.7071   11.2886 N   0  0  0  0  0  0
    0.0026   30.5705    6.5792 N   0  0  0  0  0  0
   -0.7194   31.8116    8.3055 N   0  0  0  0  0  0
    1.1134   32.5822    7.1000 N   0  0  0  0  0  0
   -2.9124   33.0469   11.8534 C   0  0  0  0  0  0
   -2.3846   32.6529   10.6590 C   0  0  0  0  0  0
   -2.9399   31.3751   10.3802 C   0  0  0  0  0  0
   -3.8125   31.0904   11.4755 C   0  0  0  0  0  0
   -4.6833   29.9615   11.8309 C   0  0  0  0  0  0
   -3.4301   28.2879   10.3345 C   0  0  0  0  0  0
   -3.4018   29.1224    9.0668 C   0  0  0  0  0  0
   -2.5996   30.4117    9.2182 C   0  0  0  0  0  0
   -1.5676   30.6941    8.3167 C   0  0  0  0  0  0
   -1.0505   29.9134    7.1212 C   0  0  0  0  0  0
    0.1752   31.6787    7.3090 C   0  0  0  0  0  0
   -4.2563   32.2028   13.1792 H   0  0  0  0  0  0
   -5.0961   28.0037   11.5775 H   0  0  0  0  0  0
   -0.7706   32.5725    8.9281 H   0  0  0  0  0  0
    1.7566   32.4628    6.3643 H   0  0  0  0  0  0
    1.1703   33.3759    7.6797 H   0  0  0  0  0  0
  1  9  1  0  0  0
  2 13  2  0  0  0
  3 18  2  0  0  0
  4  9  1  0  0  0
  4 12  1  0  0  0
  4 20  1  0  0  0
  5 13  1  0  0  0
  5 14  1  0  0  0
  5 21  1  0  0  0
  6 18  1  0  0  0
  6 19  2  0  0  0
  7 17  1  0  0  0
  7 19  1  0  0  0
  7 22  1  0  0  0
  8 19  1  0  0  0
  8 23  1  0  0  0
  8 24  1  0  0  0
  9 10  2  0  0  0
 10 11  1  0  0  0
 11 12  2  0  0  0
 11 16  1  0  0  0
 12 13  1  0  0  0
 14 15  1  0  0  0
 15 16  1  0  0  0
 16 17  2  0  0  0
 17 18  1  0  0  0
M  END
>  <CHROM.0>
-98.73519141,-55.78608080,94.49765238,128.27958997,119.60075433,-61.11066012

>  <CHROM.1>
-2.46106459,31.66068694,10.36986053,-2.06541306,-0.77832207,-2.49781249

>  <FORMUL>
      HMD    C11 H10 Br1 N5 O2

>  <HET>
 HMD  A 400      19

>  <HETNAM>
     HMD 4-(5-AMINO-4-OXO-4H-PYRAZOL-3-YL)-2-BROMO-4,5,6,7-TETRA
   2 HMD HYDRO-3AH-PYRROLO[2,3-C]AZEPIN-8-ONE

>  <HETSYN>
     HMD HYMENIALDISINE

>  <Name>
HMD.pdb

>  <RI>
3.93146e+07

>  <Rbt.Current_Directory>
/home/malgorzata/Desktop/rDOCK_IFD/Wyniki/2b_CDK2

>  <Rbt.Executable>
rbdock ($Id: //depot/dev/client3/rdock/2013.1/src/exe/rbdock.cxx#4 $)

>  <Rbt.Library>
libRbt.so (2013.1, Build901 2013/11/27)

>  <Rbt.Parameter_File>
/home/malgorzata/Desktop/rDock_2013.1_src/data/scripts/soft_docking.prm

>  <Rbt.Receptor>
cavity.prm

>  <SCORE>
-29.3224

>  <SCORE.INTER>
-30.6572

>  <SCORE.INTER.CONST>
1

>  <SCORE.INTER.POLAR>
-0.283112

>  <SCORE.INTER.REPUL>
0

>  <SCORE.INTER.ROT>
0

>  <SCORE.INTER.VDW>
-35.0946

>  <SCORE.INTER.norm>
-1.61353

>  <SCORE.INTRA>
0

>  <SCORE.INTRA.DIHEDRAL>
0

>  <SCORE.INTRA.DIHEDRAL.0>
0

>  <SCORE.INTRA.POLAR>
0

>  <SCORE.INTRA.POLAR.0>
0

>  <SCORE.INTRA.REPUL>
0

>  <SCORE.INTRA.REPUL.0>
0

>  <SCORE.INTRA.VDW>
0

>  <SCORE.INTRA.VDW.0>
0

>  <SCORE.INTRA.norm>
0

>  <SCORE.RESTR>
0

>  <SCORE.RESTR.CAVITY>
0

>  <SCORE.RESTR.norm>
0

>  <SCORE.SYSTEM>
1.33474

>  <SCORE.SYSTEM.CONST>
0

>  <SCORE.SYSTEM.DIHEDRAL>
2.03184

>  <SCORE.SYSTEM.POLAR>
-0.532577

>  <SCORE.SYSTEM.REPUL>
0.8

>  <SCORE.SYSTEM.VDW>
-1.87042

>  <SCORE.SYSTEM.norm>
0.0702493

>  <SCORE.heavy>
19

>  <SCORE.norm>
-1.54329

$$$$
HMD.pdb
  rDOCK(R)          3D
libRbt.so/2013.1/901 2013/11/27
 24 26  0  0  0  0  0  0  0  0999 V2000
   -6.6895   32.7721   13.8802 Br  0  0  0  0  0  0
   -2.2682   33.3900   10.9228 O   0  0  0  0  0  0
   -2.6038   26.0709   10.7066 O   0  0  0  0  0  0
   -4.4893   32.5375   12.2122 N   0  0  0  0  0  0
   -2.0043   31.4224    9.7812 N   0  0  0  0  0  0
   -4.5233   25.4988   11.8374 N   0  0  0  0  0  0
   -5.1757   27.5382   12.5135 N   0  0  0  0  0  0
   -6.5022   25.7200   13.0973 N   0  0  0  0  0  0
   -5.3733   31.8618   12.9494 C   0  0  0  0  0  0
   -5.1468   30.5184   12.8837 C   0  0  0  0  0  0
   -4.0318   30.3442   12.0204 C   0  0  0  0  0  0
   -3.6458   31.6619   11.6242 C   0  0  0  0  0  0
   -2.5965   32.2084   10.7527 C   0  0  0  0  0  0
   -2.2768   30.0122    9.4546 C   0  0  0  0  0  0
   -2.1521   29.0815   10.6473 C   0  0  0  0  0  0
   -3.4197   29.0238   11.4950 C   0  0  0  0  0  0
   -4.0111   27.7864   11.7715 C   0  0  0  0  0  0
   -3.6074   26.3792   11.3679 C   0  0  0  0  0  0
   -5.4377   26.2183   12.4983 C   0  0  0  0  0  0
   -4.4573   33.5164   12.1131 H   0  0  0  0  0  0
   -1.3111   31.8621    9.2377 H   0  0  0  0  0  0
   -5.7157   28.2215   12.9725 H   0  0  0  0  0  0
   -6.6724   24.7506   13.0724 H   0  0  0  0  0  0
   -7.1262   26.3174   13.5693 H   0  0  0  0  0  0
  1  9  1  0  0  0
  2 13  2  0  0  0
  3 18  2  0  0  0
  4  9  1  0  0  0
  4 12  1  0  0  0
  4 20  1  0  0  0
  5 13  1  0  0  0
  5 14  1  0  0  0
  5 21  1  0  0  0
  6 18  1  0  0  0
  6 19  2  0  0  0
  7 17  1  0  0  0
  7 19  1  0  0  0
  7 22  1  0  0  0
  8 19  1  0  0  0
  8 23  1  0  0  0
  8 24  1  0  0  0
  9 10  2  0  0  0
 10 11  1  0  0  0
 11 12  2  0  0  0
 11 16  1  0  0  0
 12 13  1  0  0  0
 14 15  1  0  0  0
 15 16  1  0  0  0
 16 17  2  0  0  0
 17 18  1  0  0  0
M  END
>  <CHROM.0>
-128.78935253,-39.87091281,116.08956315,-171.71762506,-179.54859467,-61.11066012

>  <CHROM.1>
-4.53755281,30.13969431,12.13580964,1.91353405,0.65497419,0.05190518

>  <FORMUL>
      HMD    C11 H10 Br1 N5 O2

>  <HET>
 HMD  A 400      19

>  <HETNAM>
     HMD 4-(5-AMINO-4-OXO-4H-PYRAZOL-3-YL)-2-BROMO-4,5,6,7-TETRA
   2 HMD HYDRO-3AH-PYRROLO[2,3-C]AZEPIN-8-ONE

>  <HETSYN>
     HMD HYMENIALDISINE

>  <Name>
HMD.pdb

>  <RI>
3.93146e+07

>  <Rbt.Current_Directory>
/home/malgorzata/Desktop/rDOCK_IFD/Wyniki/2b_CDK2

>  <Rbt.Executable>
rbdock ($Id: //depot/dev/client3/rdock/2013.1/src/exe/rbdock.cxx#4 $)

>  <Rbt.Library>
libRbt.so (2013.1, Build901 2013/11/27)

>  <Rbt.Parameter_File>
/home/malgorzata/Desktop/rDock_2013.1_src/data/scripts/soft_docking.prm

>  <Rbt.Receptor>
cavity.prm

>  <SCORE>
-27.4127

>  <SCORE.INTER>
-28.4944

>  <SCORE.INTER.CONST>
1

>  <SCORE.INTER.POLAR>
-0.405634

>  <SCORE.INTER.REPUL>
0

>  <SCORE.INTER.ROT>
0

>  <SCORE.INTER.VDW>
-32.5152

>  <SCORE.INTER.norm>
-1.4997

>  <SCORE.INTRA>
0

>  <SCORE.INTRA.DIHEDRAL>
0

>  <SCORE.INTRA.DIHEDRAL.0>
0

>  <SCORE.INTRA.POLAR>
0

>  <SCORE.INTRA.POLAR.0>
0

>  <SCORE.INTRA.REPUL>
0

>  <SCORE.INTRA.REPUL.0>
0

>  <SCORE.INTRA.VDW>
0

>  <SCORE.INTRA.VDW.0>
0

>  <SCORE.INTRA.norm>
0

>  <SCORE.RESTR>
0

>  <SCORE.RESTR.CAVITY>
0

>  <SCORE.RESTR.norm>
0

>  <SCORE.SYSTEM>
1.08172

>  <SCORE.SYSTEM.CONST>
0

>  <SCORE.SYSTEM.DIHEDRAL>
2.03121

>  <SCORE.SYSTEM.POLAR>
-0.595167

>  <SCORE.SYSTEM.REPUL>
0.8

>  <SCORE.SYSTEM.VDW>
-1.91032

>  <SCORE.SYSTEM.norm>
0.0569325

>  <SCORE.heavy>
19

>  <SCORE.norm>
-1.44277

$$$$
HMD.pdb
  rDOCK(R)          3D
libRbt.so/2013.1/901 2013/11/27
 24 26  0  0  0  0  0  0  0  0999 V2000
   -5.9665   33.1200   13.9546 Br  0  0  0  0  0  0
   -2.1949   32.5491   10.1962 O   0  0  0  0  0  0
   -3.8762   25.4614   11.0137 O   0  0  0  0  0  0
   -4.2266   32.2887   11.9646 N   0  0  0  0  0  0
   -2.5245   30.4692    9.2961 N   0  0  0  0  0  0
   -5.5991   25.3986   12.5362 N   0  0  0  0  0  0
   -5.7246   27.5825   13.0427 N   0  0  0  0  0  0
   -7.2106   26.1333   14.0904 N   0  0  0  0  0  0
   -5.0504   31.8786   12.9313 C   0  0  0  0  0  0
   -5.0868   30.5170   13.0043 C   0  0  0  0  0  0
   -4.2187   30.0402   11.9856 C   0  0  0  0  0  0
   -3.6903   31.2091   11.3557 C   0  0  0  0  0  0
   -2.7576   31.4473   10.2456 C   0  0  0  0  0  0
   -3.1060   29.1185    9.2132 C   0  0  0  0  0  0
   -2.9125   28.2995   10.4766 C   0  0  0  0  0  0
   -3.9724   28.5796   11.5382 C   0  0  0  0  0  0
   -4.7084   27.5190   12.0775 C   0  0  0  0  0  0
   -4.6538   26.0274   11.7977 C   0  0  0  0  0  0
   -6.2170   26.3473   13.2495 C   0  0  0  0  0  0
   -4.0399   33.2271   11.7328 H   0  0  0  0  0  0
   -1.8877   30.7063    8.5838 H   0  0  0  0  0  0
   -6.0292   28.4012   13.4968 H   0  0  0  0  0  0
   -7.5537   25.2203   14.2249 H   0  0  0  0  0  0
   -7.6090   26.8865   14.5836 H   0  0  0  0  0  0
  1  9  1  0  0  0
  2 13  2  0  0  0
  3 18  2  0  0  0
  4  9  1  0  0  0
  4 12  1  0  0  0
  4 20  1  0  0  0
  5 13  1  0  0  0
  5 14  1  0  0  0
  5 21  1  0  0  0
  6 18  1  0  0  0
  6 19  2  0  0  0
  7 17  1  0  0  0
  7 19  1  0  0  0
  7 22  1  0  0  0
  8 19  1  0  0  0
  8 23  1  0  0  0
  8 24  1  0  0  0
  9 10  2  0  0  0
 10 11  1  0  0  0
 11 12  2  0  0  0
 11 16  1  0  0  0
 12 13  1  0  0  0
 14 15  1  0  0  0
 15 16  1  0  0  0
 16 17  2  0  0  0
 17 18  1  0  0  0
M  END
>  <CHROM.0>
20.17423852,-142.90996599,-143.21712690,-170.29228873,169.16953895,-61.11066012

>  <CHROM.1>
-4.71909304,29.95383401,12.21591389,1.62797336,0.83135476,0.13049573

>  <FORMUL>
      HMD    C11 H10 Br1 N5 O2

>  <HET>
 HMD  A 400      19

>  <HETNAM>
     HMD 4-(5-AMINO-4-OXO-4H-PYRAZOL-3-YL)-2-BROMO-4,5,6,7-TETRA
   2 HMD HYDRO-3AH-PYRROLO[2,3-C]AZEPIN-8-ONE

>  <HETSYN>
     HMD HYMENIALDISINE

>  <Name>
HMD.pdb

>  <RI>
3.93146e+07

>  <Rbt.Current_Directory>
/home/malgorzata/Desktop/rDOCK_IFD/Wyniki/2b_CDK2

>  <Rbt.Executable>
rbdock ($Id: //depot/dev/client3/rdock/2013.1/src/exe/rbdock.cxx#4 $)

>  <Rbt.Library>
libRbt.so (2013.1, Build901 2013/11/27)

>  <Rbt.Parameter_File>
/home/malgorzata/Desktop/rDock_2013.1_src/data/scripts/soft_docking.prm

>  <Rbt.Receptor>
cavity.prm

>  <SCORE>
-27.8901

>  <SCORE.INTER>
-28.9188

>  <SCORE.INTER.CONST>
1

>  <SCORE.INTER.POLAR>
-1.26129

>  <SCORE.INTER.REPUL>
0

>  <SCORE.INTER.ROT>
0

>  <SCORE.INTER.VDW>
-30.0304

>  <SCORE.INTER.norm>
-1.52204

>  <SCORE.INTRA>
0

>  <SCORE.INTRA.DIHEDRAL>
0

>  <SCORE.INTRA.DIHEDRAL.0>
0

>  <SCORE.INTRA.POLAR>
0

>  <SCORE.INTRA.POLAR.0>
0

>  <SCORE.INTRA.REPUL>
0

>  <SCORE.INTRA.REPUL.0>
0

>  <SCORE.INTRA.VDW>
0

>  <SCORE.INTRA.VDW.0>
0

>  <SCORE.INTRA.norm>
0

>  <SCORE.RESTR>
0

>  <SCORE.RESTR.CAVITY>
0

>  <SCORE.RESTR.norm>
0

>  <SCORE.SYSTEM>
1.02871

>  <SCORE.SYSTEM.CONST>
0

>  <SCORE.SYSTEM.DIHEDRAL>
2.03398

>  <SCORE.SYSTEM.POLAR>
-0.619677

>  <SCORE.SYSTEM.REPUL>
0.8

>  <SCORE.SYSTEM.VDW>
-1.88137

>  <SCORE.SYSTEM.norm>
0.0541428

>  <SCORE.heavy>
19

>  <SCORE.norm>
-1.4679

$$$$
HMD.pdb
  rDOCK(R)          3D
libRbt.so/2013.1/901 2013/11/27
 24 26  0  0  0  0  0  0  0  0999 V2000
   -3.0293   34.3040   12.6218 Br  0  0  0  0  0  0
   -5.3146   29.4630   12.4850 O   0  0  0  0  0  0
   -0.7741   28.5889    6.7974 O   0  0  0  0  0  0
   -3.7744   31.6692   12.1963 N   0  0  0  0  0  0
   -3.9036   28.1444   11.2542 N   0  0  0  0  0  0
    0.4554   30.5290    6.6743 N   0  0  0  0  0  0
   -0.5318   31.6971    8.3183 N   0  0  0  0  0  0
    1.2176   32.7041    7.1643 N   0  0  0  0  0  0
   -3.0590   32.6890   11.7171 C   0  0  0  0  0  0
   -2.4192   32.3440   10.5630 C   0  0  0  0  0  0
   -2.7576   30.9875   10.3102 C   0  0  0  0  0  0
   -3.6286   30.6057   11.3768 C   0  0  0  0  0  0
   -4.3322   29.3671   11.7377 C   0  0  0  0  0  0
   -2.7655   27.8616   10.3631 C   0  0  0  0  0  0
   -2.8038   28.6499    9.0664 C   0  0  0  0  0  0
   -2.2172   30.0522    9.2023 C   0  0  0  0  0  0
   -1.1980   30.4625    8.3361 C   0  0  0  0  0  0
   -0.5096   29.7341    7.1953 C   0  0  0  0  0  0
    0.4201   31.6731    7.3674 C   0  0  0  0  0  0
   -4.3204   31.6891   13.0153 H   0  0  0  0  0  0
   -4.4268   27.3620   11.5428 H   0  0  0  0  0  0
   -0.7295   32.4602    8.9081 H   0  0  0  0  0  0
    1.9067   32.6626    6.4623 H   0  0  0  0  0  0
    1.1237   33.5149    7.7147 H   0  0  0  0  0  0
  1  9  1  0  0  0
  2 13  2  0  0  0
  3 18  2  0  0  0
  4  9  1  0  0  0
  4 12  1  0  0  0
  4 20  1  0  0  0
  5 13  1  0  0  0
  5 14  1  0  0  0
  5 21  1  0  0  0
  6 18  1  0  0  0
  6 19  2  0  0  0
  7 17  1  0  0  0
  7 19  1  0  0  0
  7 22  1  0  0  0
  8 19  1  0  0  0
  8 23  1  0  0  0
  8 24  1  0  0  0
  9 10  2  0  0  0
 10 11  1  0  0  0
 11 12  2  0  0  0
 11 16  1  0  0  0
 12 13  1  0  0  0
 14 15  1  0  0  0
 15 16  1  0  0  0
 16 17  2  0  0  0
 17 18  1  0  0  0
M  END
>  <CHROM.0>
-11.63921328,12.57258600,84.31381212,167.46505565,-155.93156490,-61.11066012

>  <CHROM.1>
-2.32838443,31.34334468,10.30948859,-2.28998708,-0.81936945,-2.69456382

>  <FORMUL>
      HMD    C11 H10 Br1 N5 O2

>  <HET>
 HMD  A 400      19

>  <HETNAM>
     HMD 4-(5-AMINO-4-OXO-4H-PYRAZOL-3-YL)-2-BROMO-4,5,6,7-TETRA
   2 HMD HYDRO-3AH-PYRROLO[2,3-C]AZEPIN-8-ONE

>  <HETSYN>
     HMD HYMENIALDISINE

>  <Name>
HMD.pdb

>  <RI>
3.93146e+07

>  <Rbt.Current_Directory>
/home/malgorzata/Desktop/rDOCK_IFD/Wyniki/2b_CDK2

>  <Rbt.Executable>
rbdock ($Id: //depot/dev/client3/rdock/2013.1/src/exe/rbdock.cxx#4 $)

>  <Rbt.Library>
libRbt.so (2013.1, Build901 2013/11/27)

>  <Rbt.Parameter_File>
/home/malgorzata/Desktop/rDock_2013.1_src/data/scripts/soft_docking.prm

>  <Rbt.Receptor>
cavity.prm

>  <SCORE>
-27.9789

>  <SCORE.INTER>
-29.6004

>  <SCORE.INTER.CONST>
1

>  <SCORE.INTER.POLAR>
-0.477054

>  <SCORE.INTER.REPUL>
0

>  <SCORE.INTER.ROT>
0

>  <SCORE.INTER.VDW>
-33.3784

>  <SCORE.INTER.norm>
-1.55791

>  <SCORE.INTRA>
0

>  <SCORE.INTRA.DIHEDRAL>
0

>  <SCORE.INTRA.DIHEDRAL.0>
0

>  <SCORE.INTRA.POLAR>
0

>  <SCORE.INTRA.POLAR.0>
0

>  <SCORE.INTRA.REPUL>
0

>  <SCORE.INTRA.REPUL.0>
0

>  <SCORE.INTRA.VDW>
0

>  <SCORE.INTRA.VDW.0>
0

>  <SCORE.INTRA.norm>
0

>  <SCORE.RESTR>
0

>  <SCORE.RESTR.CAVITY>
0

>  <SCORE.RESTR.norm>
0

>  <SCORE.SYSTEM>
1.62141

>  <SCORE.SYSTEM.CONST>
0

>  <SCORE.SYSTEM.DIHEDRAL>
2.02552

>  <SCORE.SYSTEM.POLAR>
-0.450089

>  <SCORE.SYSTEM.REPUL>
0.8

>  <SCORE.SYSTEM.VDW>
-1.86105

>  <SCORE.SYSTEM.norm>
0.0853374

>  <SCORE.heavy>
19

>  <SCORE.norm>
-1.47258

$$$$
