RAL.pdb
  rDOCK(R)          3D
libRbt.so/2013.1/901 2013/11/27
 36 40  0  0  0  0  0  0  0  0999 V2000
   35.5713   -5.6113   16.2872 C   0  0  0  0  0  0
   35.1757   -5.1089   15.0744 C   0  0  0  0  0  0
   33.9526   -5.3846   14.5296 C   0  0  0  0  0  0
   33.6668   -4.7955   13.3233 O   0  0  0  0  0  0
   33.0553   -6.1943   15.2354 C   0  0  0  0  0  0
   33.4421   -6.6672   16.4652 C   0  0  0  0  0  0
   32.6409   -7.6716   17.5047 S   0  0  0  0  0  0
   33.8049   -7.7265   18.7260 C   0  0  0  0  0  0
   33.6850   -8.5776   19.9439 C   0  0  0  0  0  0
   34.5080   -8.2221   20.9948 C   0  0  0  0  0  0
   34.3868   -8.9155   22.1881 C   0  0  0  0  0  0
   33.4991   -9.9644   22.3256 C   0  0  0  0  0  0
   33.4449  -10.6004   23.5672 O   0  0  0  0  0  0
   32.6463  -10.2876   21.2906 C   0  0  0  0  0  0
   32.7635   -9.5756   20.1032 C   0  0  0  0  0  0
   34.7294   -6.3777   17.0010 C   0  0  0  0  0  0
   34.9425   -7.0141   18.2914 C   0  0  0  0  0  0
   36.1326   -6.9025   18.9849 C   0  0  0  0  0  0
   36.6734   -7.9230   19.4291 O   0  0  0  0  0  0
   36.7876   -5.6142   19.2367 C   0  0  0  0  0  0
   38.1636   -5.5250   19.3004 C   0  0  0  0  0  0
   38.8110   -4.3306   19.5504 C   0  0  0  0  0  0
   38.0449   -3.1878   19.7736 C   0  0  0  0  0  0
   36.6653   -3.2637   19.7043 C   0  0  0  0  0  0
   36.0431   -4.4690   19.4250 C   0  0  0  0  0  0
   38.4557   -1.9167   20.0473 O   0  0  0  0  0  0
   39.3768   -1.3374   19.1358 C   0  0  0  0  0  0
   38.7771   -1.2712   17.7565 C   0  0  0  0  0  0
   37.7174   -0.4146   17.2598 N   0  0  0  0  0  0
   36.7066   -0.2427   18.3228 C   0  0  0  0  0  0
   35.6001    0.7719   17.9706 C   0  0  0  0  0  0
   34.8658    0.2167   16.7395 C   0  0  0  0  0  0
   35.9489    0.2360   15.6174 C   0  0  0  0  0  0
   37.0229   -0.7921   16.0133 C   0  0  0  0  0  0
   34.3475   -4.6643   12.6930 H   0  0  0  0  0  0
   33.4898  -10.0948   24.3549 H   0  0  0  0  0  0
  1  2  2  0  0  0
  1 16  1  0  0  0
  2  3  1  0  0  0
  3  4  1  0  0  0
  3  5  2  0  0  0
  4 35  1  0  0  0
  5  6  1  0  0  0
  6  7  1  0  0  0
  6 16  2  0  0  0
  7  8  1  0  0  0
  8  9  1  0  0  0
  8 17  2  0  0  0
  9 10  2  0  0  0
  9 15  1  0  0  0
 10 11  1  0  0  0
 11 12  2  0  0  0
 12 13  1  0  0  0
 12 14  1  0  0  0
 13 36  1  0  0  0
 14 15  2  0  0  0
 16 17  1  0  0  0
 17 18  1  0  0  0
 18 19  2  0  0  0
 18 20  1  0  0  0
 20 21  2  0  0  0
 20 25  1  0  0  0
 21 22  1  0  0  0
 22 23  2  0  0  0
 23 24  1  0  0  0
 23 26  1  0  0  0
 24 25  2  0  0  0
 26 27  1  0  0  0
 27 28  1  0  0  0
 28 29  1  0  0  0
 29 30  1  0  0  0
 29 34  1  0  0  0
 30 31  1  0  0  0
 31 32  1  0  0  0
 32 33  1  0  0  0
 33 34  1  0  0  0
M  END
>  <CHROM.0>
-1.80075618,-83.95629312,55.52666273

>  <CHROM.1>
34.77641218,-162.11220369,40.30715853,49.70509148,-147.61374922,54.10314668
60.07571295,71.36234593,-37.21404863,35.43750241,-5.16263394,18.40319375
0.97931050,-0.85864578,-0.84008475

>  <FORMUL>
      RAL    C28 H27 N1 O4 S1

>  <HET>
 RAL  A 600      34

>  <HETNAM>
     RAL RALOXIFENE

>  <Name>
RAL.pdb

>  <RI>
0

>  <Rbt.Current_Directory>
/home/malgorzata/Desktop/rDOCK_IFD/Wyniki/6c_estrogen_receptor/IFD

>  <Rbt.Executable>
rbdock ($Id: //depot/dev/client3/rdock/2013.1/src/exe/rbdock.cxx#4 $)

>  <Rbt.Library>
libRbt.so (2013.1, Build901 2013/11/27)

>  <Rbt.Parameter_File>
/home/malgorzata/Desktop/rDock_2013.1_src/data/scripts/hard_docking.prm

>  <Rbt.Receptor>
cavity.prm

>  <SCORE>
8.99434

>  <SCORE.INTER>
-13.0433

>  <SCORE.INTER.CONST>
1

>  <SCORE.INTER.POLAR>
-1.76824

>  <SCORE.INTER.REPUL>
0

>  <SCORE.INTER.ROT>
7

>  <SCORE.INTER.VDW>
-19.4312

>  <SCORE.INTER.norm>
-0.383625

>  <SCORE.INTRA>
1.60603

>  <SCORE.INTRA.DIHEDRAL>
1.69706

>  <SCORE.INTRA.DIHEDRAL.0>
18.358

>  <SCORE.INTRA.POLAR>
0

>  <SCORE.INTRA.POLAR.0>
0

>  <SCORE.INTRA.REPUL>
0

>  <SCORE.INTRA.REPUL.0>
0

>  <SCORE.INTRA.VDW>
0.757497

>  <SCORE.INTRA.VDW.0>
-1.94569

>  <SCORE.INTRA.norm>
0.0472361

>  <SCORE.RESTR>
2.78272

>  <SCORE.RESTR.CAVITY>
2.78272

>  <SCORE.RESTR.norm>
0.0818446

>  <SCORE.SYSTEM>
17.6489

>  <SCORE.SYSTEM.CONST>
0

>  <SCORE.SYSTEM.DIHEDRAL>
3.27553

>  <SCORE.SYSTEM.POLAR>
-0.934992

>  <SCORE.SYSTEM.VDW>
19.1901

>  <SCORE.SYSTEM.norm>
0.519084

>  <SCORE.heavy>
34

>  <SCORE.norm>
0.264539

$$$$
RAL.pdb
  rDOCK(R)          3D
libRbt.so/2013.1/901 2013/11/27
 36 40  0  0  0  0  0  0  0  0999 V2000
   35.3714   -6.0052   15.8586 C   0  0  0  0  0  0
   34.9838   -5.5398   14.6286 C   0  0  0  0  0  0
   33.7162   -5.7099   14.1457 C   0  0  0  0  0  0
   33.4475   -5.1704   12.9125 O   0  0  0  0  0  0
   32.7651   -6.3663   14.9351 C   0  0  0  0  0  0
   33.1478   -6.8004   16.1803 C   0  0  0  0  0  0
   32.2844   -7.6395   17.3124 S   0  0  0  0  0  0
   33.4848   -7.7474   18.4944 C   0  0  0  0  0  0
   33.3222   -8.5000   19.7707 C   0  0  0  0  0  0
   34.3707   -8.3822   20.6622 C   0  0  0  0  0  0
   34.2485   -8.9843   21.9040 C   0  0  0  0  0  0
   33.1301   -9.7211   22.2411 C   0  0  0  0  0  0
   33.0955  -10.2871   23.5167 O   0  0  0  0  0  0
   32.0654   -9.7989   21.3676 C   0  0  0  0  0  0
   32.1902   -9.1777   20.1310 C   0  0  0  0  0  0
   34.4803   -6.6244   16.6511 C   0  0  0  0  0  0
   34.6752   -7.1972   17.9738 C   0  0  0  0  0  0
   35.8979   -7.1766   18.6173 C   0  0  0  0  0  0
   36.4738   -8.2449   18.8590 O   0  0  0  0  0  0
   36.5487   -5.9341   19.0471 C   0  0  0  0  0  0
   35.8373   -4.7529   19.1114 C   0  0  0  0  0  0
   36.4234   -3.5631   19.4977 C   0  0  0  0  0  0
   37.7833   -3.5548   19.8029 C   0  0  0  0  0  0
   38.5045   -4.7342   19.7496 C   0  0  0  0  0  0
   37.8854   -5.9181   19.3853 C   0  0  0  0  0  0
   38.5714   -2.5121   20.1915 O   0  0  0  0  0  0
   39.2185   -1.7860   19.1575 C   0  0  0  0  0  0
   38.2025   -1.2056   18.2104 C   0  0  0  0  0  0
   37.2998   -1.8903   17.3049 N   0  0  0  0  0  0
   38.0830   -2.4498   16.1848 C   0  0  0  0  0  0
   37.2569   -3.3336   15.2286 C   0  0  0  0  0  0
   36.1766   -2.4299   14.6128 C   0  0  0  0  0  0
   35.2869   -2.0277   15.8291 C   0  0  0  0  0  0
   36.1534   -1.1472   16.7464 C   0  0  0  0  0  0
   34.1508   -4.9525   12.3331 H   0  0  0  0  0  0
   32.2774  -10.5500   23.8906 H   0  0  0  0  0  0
  1  2  2  0  0  0
  1 16  1  0  0  0
  2  3  1  0  0  0
  3  4  1  0  0  0
  3  5  2  0  0  0
  4 35  1  0  0  0
  5  6  1  0  0  0
  6  7  1  0  0  0
  6 16  2  0  0  0
  7  8  1  0  0  0
  8  9  1  0  0  0
  8 17  2  0  0  0
  9 10  2  0  0  0
  9 15  1  0  0  0
 10 11  1  0  0  0
 11 12  2  0  0  0
 12 13  1  0  0  0
 12 14  1  0  0  0
 13 36  1  0  0  0
 14 15  2  0  0  0
 16 17  1  0  0  0
 17 18  1  0  0  0
 18 19  2  0  0  0
 18 20  1  0  0  0
 20 21  2  0  0  0
 20 25  1  0  0  0
 21 22  1  0  0  0
 22 23  2  0  0  0
 23 24  1  0  0  0
 23 26  1  0  0  0
 24 25  2  0  0  0
 26 27  1  0  0  0
 27 28  1  0  0  0
 28 29  1  0  0  0
 29 30  1  0  0  0
 29 34  1  0  0  0
 30 31  1  0  0  0
 31 32  1  0  0  0
 32 33  1  0  0  0
 33 34  1  0  0  0
M  END
>  <CHROM.0>
-2.98734580,-97.00028311,65.00683882

>  <CHROM.1>
18.92496650,-174.82629738,160.32559506,64.95427411,15.27763152,-90.52673899
59.15605156,-66.51764431,-71.74482172,35.27924971,-5.67959138,18.08177367
0.86239528,-0.77948040,-1.06497059

>  <FORMUL>
      RAL    C28 H27 N1 O4 S1

>  <HET>
 RAL  A 600      34

>  <HETNAM>
     RAL RALOXIFENE

>  <Name>
RAL.pdb

>  <RI>
0

>  <Rbt.Current_Directory>
/home/malgorzata/Desktop/rDOCK_IFD/Wyniki/6c_estrogen_receptor/IFD

>  <Rbt.Executable>
rbdock ($Id: //depot/dev/client3/rdock/2013.1/src/exe/rbdock.cxx#4 $)

>  <Rbt.Library>
libRbt.so (2013.1, Build901 2013/11/27)

>  <Rbt.Parameter_File>
/home/malgorzata/Desktop/rDock_2013.1_src/data/scripts/hard_docking.prm

>  <Rbt.Receptor>
cavity.prm

>  <SCORE>
7.44938

>  <SCORE.INTER>
-9.49718

>  <SCORE.INTER.CONST>
1

>  <SCORE.INTER.POLAR>
-0.563857

>  <SCORE.INTER.REPUL>
0

>  <SCORE.INTER.ROT>
7

>  <SCORE.INTER.VDW>
-19.9801

>  <SCORE.INTER.norm>
-0.279329

>  <SCORE.INTRA>
-2.12979

>  <SCORE.INTRA.DIHEDRAL>
-1.51652

>  <SCORE.INTRA.DIHEDRAL.0>
18.358

>  <SCORE.INTRA.POLAR>
0

>  <SCORE.INTRA.POLAR.0>
0

>  <SCORE.INTRA.REPUL>
0

>  <SCORE.INTRA.REPUL.0>
0

>  <SCORE.INTRA.VDW>
-1.37154

>  <SCORE.INTRA.VDW.0>
-1.94569

>  <SCORE.INTRA.norm>
-0.062641

>  <SCORE.RESTR>
1.26933

>  <SCORE.RESTR.CAVITY>
1.26933

>  <SCORE.RESTR.norm>
0.0373333

>  <SCORE.SYSTEM>
17.807

>  <SCORE.SYSTEM.CONST>
0

>  <SCORE.SYSTEM.DIHEDRAL>
5.69437

>  <SCORE.SYSTEM.POLAR>
-0.753495

>  <SCORE.SYSTEM.VDW>
17.5217

>  <SCORE.SYSTEM.norm>
0.523736

>  <SCORE.heavy>
34

>  <SCORE.norm>
0.2191

$$$$
RAL.pdb
  rDOCK(R)          3D
libRbt.so/2013.1/901 2013/11/27
 36 40  0  0  0  0  0  0  0  0999 V2000
   38.5115   -7.6246   23.8245 C   0  0  0  0  0  0
   38.2869   -7.7108   25.1743 C   0  0  0  0  0  0
   37.1869   -8.3317   25.6970 C   0  0  0  0  0  0
   37.0944   -8.3757   27.0657 O   0  0  0  0  0  0
   36.2574   -8.9207   24.8321 C   0  0  0  0  0  0
   36.5037   -8.8621   23.4825 C   0  0  0  0  0  0
   35.5864   -9.4102   22.2218 S   0  0  0  0  0  0
   36.6066   -8.9373   20.9628 C   0  0  0  0  0  0
   36.2647   -9.0913   19.5202 C   0  0  0  0  0  0
   34.9163   -9.0386   19.2250 C   0  0  0  0  0  0
   34.5322   -9.0876   17.8947 C   0  0  0  0  0  0
   35.4598   -9.2265   16.8811 C   0  0  0  0  0  0
   34.9781   -9.2624   15.5713 O   0  0  0  0  0  0
   36.8076   -9.2325   17.1745 C   0  0  0  0  0  0
   37.1841   -9.1660   18.5104 C   0  0  0  0  0  0
   37.6498   -8.1939   22.9650 C   0  0  0  0  0  0
   37.6886   -8.2167   21.5111 C   0  0  0  0  0  0
   38.6911   -7.6002   20.7870 C   0  0  0  0  0  0
   39.8519   -8.0186   20.8809 O   0  0  0  0  0  0
   38.4459   -6.4487   19.9117 C   0  0  0  0  0  0
   37.2407   -6.3094   19.2533 C   0  0  0  0  0  0
   36.9832   -5.2454   18.4108 C   0  0  0  0  0  0
   37.9862   -4.3009   18.1995 C   0  0  0  0  0  0
   39.1952   -4.4260   18.8602 C   0  0  0  0  0  0
   39.4167   -5.4884   19.7205 C   0  0  0  0  0  0
   37.9671   -3.1871   17.4130 O   0  0  0  0  0  0
   36.7102   -2.5485   17.2476 C   0  0  0  0  0  0
   36.2982   -1.8653   18.5243 C   0  0  0  0  0  0
   35.7799   -2.4475   19.7475 N   0  0  0  0  0  0
   36.9108   -2.9614   20.5464 C   0  0  0  0  0  0
   36.5041   -3.4712   21.9437 C   0  0  0  0  0  0
   35.5403   -4.6481   21.7224 C   0  0  0  0  0  0
   34.3003   -3.9932   21.0398 C   0  0  0  0  0  0
   34.7567   -3.5070   19.6531 C   0  0  0  0  0  0
   36.4615   -8.9324   27.4749 H   0  0  0  0  0  0
   35.5547   -9.4815   14.8659 H   0  0  0  0  0  0
  1  2  2  0  0  0
  1 16  1  0  0  0
  2  3  1  0  0  0
  3  4  1  0  0  0
  3  5  2  0  0  0
  4 35  1  0  0  0
  5  6  1  0  0  0
  6  7  1  0  0  0
  6 16  2  0  0  0
  7  8  1  0  0  0
  8  9  1  0  0  0
  8 17  2  0  0  0
  9 10  2  0  0  0
  9 15  1  0  0  0
 10 11  1  0  0  0
 11 12  2  0  0  0
 12 13  1  0  0  0
 12 14  1  0  0  0
 13 36  1  0  0  0
 14 15  2  0  0  0
 16 17  1  0  0  0
 17 18  1  0  0  0
 18 19  2  0  0  0
 18 20  1  0  0  0
 20 21  2  0  0  0
 20 25  1  0  0  0
 21 22  1  0  0  0
 22 23  2  0  0  0
 23 24  1  0  0  0
 23 26  1  0  0  0
 24 25  2  0  0  0
 26 27  1  0  0  0
 27 28  1  0  0  0
 28 29  1  0  0  0
 29 30  1  0  0  0
 29 34  1  0  0  0
 30 31  1  0  0  0
 31 32  1  0  0  0
 32 33  1  0  0  0
 33 34  1  0  0  0
M  END
>  <CHROM.0>
-1.75262878,-83.44205140,57.00562154

>  <CHROM.1>
-167.61493142,29.29730947,-170.94852881,-114.26807748,-31.82079841,30.72135421
71.21092091,-75.52810603,81.22572537,36.81864728,-6.67406803,20.53014390
-1.24670947,-1.39431191,-0.62455567

>  <FORMUL>
      RAL    C28 H27 N1 O4 S1

>  <HET>
 RAL  A 600      34

>  <HETNAM>
     RAL RALOXIFENE

>  <Name>
RAL.pdb

>  <RI>
0

>  <Rbt.Current_Directory>
/home/malgorzata/Desktop/rDOCK_IFD/Wyniki/6c_estrogen_receptor/IFD

>  <Rbt.Executable>
rbdock ($Id: //depot/dev/client3/rdock/2013.1/src/exe/rbdock.cxx#4 $)

>  <Rbt.Library>
libRbt.so (2013.1, Build901 2013/11/27)

>  <Rbt.Parameter_File>
/home/malgorzata/Desktop/rDock_2013.1_src/data/scripts/hard_docking.prm

>  <Rbt.Receptor>
cavity.prm

>  <SCORE>
18.1749

>  <SCORE.INTER>
-4.17371

>  <SCORE.INTER.CONST>
1

>  <SCORE.INTER.POLAR>
0

>  <SCORE.INTER.REPUL>
0

>  <SCORE.INTER.ROT>
7

>  <SCORE.INTER.VDW>
-16.5737

>  <SCORE.INTER.norm>
-0.122756

>  <SCORE.INTRA>
-0.875632

>  <SCORE.INTRA.DIHEDRAL>
1.84894

>  <SCORE.INTRA.DIHEDRAL.0>
18.358

>  <SCORE.INTRA.POLAR>
0

>  <SCORE.INTRA.POLAR.0>
0

>  <SCORE.INTRA.REPUL>
0

>  <SCORE.INTRA.REPUL.0>
0

>  <SCORE.INTRA.VDW>
-1.8001

>  <SCORE.INTRA.VDW.0>
-1.94569

>  <SCORE.INTRA.norm>
-0.0257539

>  <SCORE.RESTR>
5.59584

>  <SCORE.RESTR.CAVITY>
5.59584

>  <SCORE.RESTR.norm>
0.164584

>  <SCORE.SYSTEM>
17.6284

>  <SCORE.SYSTEM.CONST>
0

>  <SCORE.SYSTEM.DIHEDRAL>
3.18571

>  <SCORE.SYSTEM.POLAR>
-0.935549

>  <SCORE.SYSTEM.VDW>
19.2164

>  <SCORE.SYSTEM.norm>
0.518483

>  <SCORE.heavy>
34

>  <SCORE.norm>
0.534556

$$$$
RAL.pdb
  rDOCK(R)          3D
libRbt.so/2013.1/901 2013/11/27
 36 40  0  0  0  0  0  0  0  0999 V2000
   35.6769   -5.8305   16.4589 C   0  0  0  0  0  0
   34.6736   -6.5290   15.8382 C   0  0  0  0  0  0
   33.4910   -5.9475   15.4747 C   0  0  0  0  0  0
   32.5800   -6.7492   14.8332 O   0  0  0  0  0  0
   33.2927   -4.5848   15.7243 C   0  0  0  0  0  0
   34.3133   -3.8812   16.3149 C   0  0  0  0  0  0
   34.3666   -2.2957   16.7781 S   0  0  0  0  0  0
   35.9389   -2.2806   17.3925 C   0  0  0  0  0  0
   36.5540   -1.0980   18.0594 C   0  0  0  0  0  0
   37.9330   -1.0413   18.0046 C   0  0  0  0  0  0
   38.5663    0.0743   18.5280 C   0  0  0  0  0  0
   37.8530    1.0928   19.1288 C   0  0  0  0  0  0
   38.5781    2.1783   19.6236 O   0  0  0  0  0  0
   36.4742    1.0561   19.1414 C   0  0  0  0  0  0
   35.8470   -0.0589   18.5990 C   0  0  0  0  0  0
   35.5287   -4.5167   16.6984 C   0  0  0  0  0  0
   36.4501   -3.5948   17.3440 C   0  0  0  0  0  0
   37.6791   -3.9959   17.8319 C   0  0  0  0  0  0
   38.7114   -3.5756   17.2943 O   0  0  0  0  0  0
   37.8220   -4.9202   18.9622 C   0  0  0  0  0  0
   36.7590   -5.1681   19.8072 C   0  0  0  0  0  0
   36.8644   -6.0210   20.8888 C   0  0  0  0  0  0
   38.0935   -6.6251   21.1476 C   0  0  0  0  0  0
   39.1636   -6.3903   20.3028 C   0  0  0  0  0  0
   39.0225   -5.5517   19.2098 C   0  0  0  0  0  0
   38.4360   -7.4834   22.1503 O   0  0  0  0  0  0
   37.5880   -7.5001   23.2886 C   0  0  0  0  0  0
   36.2386   -8.0618   22.9279 C   0  0  0  0  0  0
   35.9142   -9.3168   22.2773 N   0  0  0  0  0  0
   36.2688   -9.2171   20.8471 C   0  0  0  0  0  0
   36.1120  -10.5419   20.0737 C   0  0  0  0  0  0
   34.6236  -10.9204   20.1411 C   0  0  0  0  0  0
   34.3728  -11.1846   21.6576 C   0  0  0  0  0  0
   34.5365   -9.8362   22.3805 C   0  0  0  0  0  0
   32.7192   -7.6747   14.7897 H   0  0  0  0  0  0
   38.3384    2.5682   20.4412 H   0  0  0  0  0  0
  1  2  2  0  0  0
  1 16  1  0  0  0
  2  3  1  0  0  0
  3  4  1  0  0  0
  3  5  2  0  0  0
  4 35  1  0  0  0
  5  6  1  0  0  0
  6  7  1  0  0  0
  6 16  2  0  0  0
  7  8  1  0  0  0
  8  9  1  0  0  0
  8 17  2  0  0  0
  9 10  2  0  0  0
  9 15  1  0  0  0
 10 11  1  0  0  0
 11 12  2  0  0  0
 12 13  1  0  0  0
 12 14  1  0  0  0
 13 36  1  0  0  0
 14 15  2  0  0  0
 16 17  1  0  0  0
 17 18  1  0  0  0
 18 19  2  0  0  0
 18 20  1  0  0  0
 20 21  2  0  0  0
 20 25  1  0  0  0
 21 22  1  0  0  0
 22 23  2  0  0  0
 23 24  1  0  0  0
 23 26  1  0  0  0
 24 25  2  0  0  0
 26 27  1  0  0  0
 27 28  1  0  0  0
 28 29  1  0  0  0
 29 30  1  0  0  0
 29 34  1  0  0  0
 30 31  1  0  0  0
 31 32  1  0  0  0
 32 33  1  0  0  0
 33 34  1  0  0  0
M  END
>  <CHROM.0>
-1.82654970,-84.23261354,57.62287822

>  <CHROM.1>
10.12371320,-154.47089548,-139.96126911,-66.44917628,-16.70269438,-19.36268667
67.43279776,53.25260100,-73.24576435,36.28528140,-4.97002838,18.93828252
1.72857178,0.87237068,2.66433922

>  <FORMUL>
      RAL    C28 H27 N1 O4 S1

>  <HET>
 RAL  A 600      34

>  <HETNAM>
     RAL RALOXIFENE

>  <Name>
RAL.pdb

>  <RI>
0

>  <Rbt.Current_Directory>
/home/malgorzata/Desktop/rDOCK_IFD/Wyniki/6c_estrogen_receptor/IFD

>  <Rbt.Executable>
rbdock ($Id: //depot/dev/client3/rdock/2013.1/src/exe/rbdock.cxx#4 $)

>  <Rbt.Library>
libRbt.so (2013.1, Build901 2013/11/27)

>  <Rbt.Parameter_File>
/home/malgorzata/Desktop/rDock_2013.1_src/data/scripts/hard_docking.prm

>  <Rbt.Receptor>
cavity.prm

>  <SCORE>
12.476

>  <SCORE.INTER>
-9.87296

>  <SCORE.INTER.CONST>
1

>  <SCORE.INTER.POLAR>
-0.957112

>  <SCORE.INTER.REPUL>
0

>  <SCORE.INTER.ROT>
7

>  <SCORE.INTER.VDW>
-19.0188

>  <SCORE.INTER.norm>
-0.290381

>  <SCORE.INTRA>
0.461002

>  <SCORE.INTRA.DIHEDRAL>
-1.31154

>  <SCORE.INTRA.DIHEDRAL.0>
18.358

>  <SCORE.INTRA.POLAR>
0

>  <SCORE.INTRA.POLAR.0>
0

>  <SCORE.INTRA.REPUL>
0

>  <SCORE.INTRA.REPUL.0>
0

>  <SCORE.INTRA.VDW>
1.11677

>  <SCORE.INTRA.VDW.0>
-1.94569

>  <SCORE.INTRA.norm>
0.0135589

>  <SCORE.RESTR>
4.27362

>  <SCORE.RESTR.CAVITY>
4.27362

>  <SCORE.RESTR.norm>
0.125695

>  <SCORE.SYSTEM>
17.6144

>  <SCORE.SYSTEM.CONST>
0

>  <SCORE.SYSTEM.DIHEDRAL>
3.32759

>  <SCORE.SYSTEM.POLAR>
-0.933821

>  <SCORE.SYSTEM.VDW>
19.1256

>  <SCORE.SYSTEM.norm>
0.51807

>  <SCORE.heavy>
34

>  <SCORE.norm>
0.366942

$$$$
RAL.pdb
  rDOCK(R)          3D
libRbt.so/2013.1/901 2013/11/27
 36 40  0  0  0  0  0  0  0  0999 V2000
   34.3240   -1.7913   16.9590 C   0  0  0  0  0  0
   35.0820   -0.6549   16.8408 C   0  0  0  0  0  0
   36.0093   -0.4912   15.8498 C   0  0  0  0  0  0
   36.6811    0.7054   15.8242 O   0  0  0  0  0  0
   36.1876   -1.5074   14.9041 C   0  0  0  0  0  0
   35.4023   -2.6292   15.0057 C   0  0  0  0  0  0
   35.4081   -4.0032   14.0874 S   0  0  0  0  0  0
   34.1671   -4.8256   14.8830 C   0  0  0  0  0  0
   33.7526   -6.2181   14.5498 C   0  0  0  0  0  0
   32.4889   -6.5755   14.9781 C   0  0  0  0  0  0
   32.0050   -7.8254   14.6273 C   0  0  0  0  0  0
   32.7707   -8.7177   13.9030 C   0  0  0  0  0  0
   32.1964   -9.9519   13.5935 O   0  0  0  0  0  0
   34.0135   -8.3420   13.4371 C   0  0  0  0  0  0
   34.4837   -7.0801   13.7797 C   0  0  0  0  0  0
   34.4555   -2.7802   16.0588 C   0  0  0  0  0  0
   33.7670   -4.0600   15.9985 C   0  0  0  0  0  0
   32.8288   -4.4415   16.9386 C   0  0  0  0  0  0
   31.9130   -3.6627   17.2318 O   0  0  0  0  0  0
   32.8743   -5.7365   17.6263 C   0  0  0  0  0  0
   34.0516   -6.4535   17.6992 C   0  0  0  0  0  0
   34.1252   -7.6822   18.3262 C   0  0  0  0  0  0
   32.9644   -8.2240   18.8756 C   0  0  0  0  0  0
   31.7806   -7.5107   18.8155 C   0  0  0  0  0  0
   31.7413   -6.2686   18.2045 C   0  0  0  0  0  0
   32.7927   -9.4109   19.5245 O   0  0  0  0  0  0
   32.3670   -9.3389   20.8768 C   0  0  0  0  0  0
   33.4745   -8.8068   21.7467 C   0  0  0  0  0  0
   33.9842   -7.4532   21.8532 N   0  0  0  0  0  0
   32.9067   -6.5092   21.4937 C   0  0  0  0  0  0
   33.2780   -5.0288   21.7133 C   0  0  0  0  0  0
   34.4658   -4.7278   20.7850 C   0  0  0  0  0  0
   35.6125   -5.6271   21.3408 C   0  0  0  0  0  0
   35.1962   -7.0877   21.0942 C   0  0  0  0  0  0
   37.2928    0.8848   15.1374 H   0  0  0  0  0  0
   32.6811  -10.5835   13.0993 H   0  0  0  0  0  0
  1  2  2  0  0  0
  1 16  1  0  0  0
  2  3  1  0  0  0
  3  4  1  0  0  0
  3  5  2  0  0  0
  4 35  1  0  0  0
  5  6  1  0  0  0
  6  7  1  0  0  0
  6 16  2  0  0  0
  7  8  1  0  0  0
  8  9  1  0  0  0
  8 17  2  0  0  0
  9 10  2  0  0  0
  9 15  1  0  0  0
 10 11  1  0  0  0
 11 12  2  0  0  0
 12 13  1  0  0  0
 12 14  1  0  0  0
 13 36  1  0  0  0
 14 15  2  0  0  0
 16 17  1  0  0  0
 17 18  1  0  0  0
 18 19  2  0  0  0
 18 20  1  0  0  0
 20 21  2  0  0  0
 20 25  1  0  0  0
 21 22  1  0  0  0
 22 23  2  0  0  0
 23 24  1  0  0  0
 23 26  1  0  0  0
 24 25  2  0  0  0
 26 27  1  0  0  0
 27 28  1  0  0  0
 28 29  1  0  0  0
 29 30  1  0  0  0
 29 34  1  0  0  0
 30 31  1  0  0  0
 31 32  1  0  0  0
 32 33  1  0  0  0
 33 34  1  0  0  0
M  END
>  <CHROM.0>
-3.00138327,-97.15632462,65.75794242

>  <CHROM.1>
-176.67156798,-160.19490315,179.65576117,-129.80072331,20.86386685,117.78222053
-70.44216399,73.42654113,26.94935932,33.86894404,-5.57835447,17.26925977
-0.69631673,1.21090808,1.59894500

>  <FORMUL>
      RAL    C28 H27 N1 O4 S1

>  <HET>
 RAL  A 600      34

>  <HETNAM>
     RAL RALOXIFENE

>  <Name>
RAL.pdb

>  <RI>
0

>  <Rbt.Current_Directory>
/home/malgorzata/Desktop/rDOCK_IFD/Wyniki/6c_estrogen_receptor/IFD

>  <Rbt.Executable>
rbdock ($Id: //depot/dev/client3/rdock/2013.1/src/exe/rbdock.cxx#4 $)

>  <Rbt.Library>
libRbt.so (2013.1, Build901 2013/11/27)

>  <Rbt.Parameter_File>
/home/malgorzata/Desktop/rDock_2013.1_src/data/scripts/hard_docking.prm

>  <Rbt.Receptor>
cavity.prm

>  <SCORE>
14.5763

>  <SCORE.INTER>
-6.45357

>  <SCORE.INTER.CONST>
1

>  <SCORE.INTER.POLAR>
0

>  <SCORE.INTER.REPUL>
0

>  <SCORE.INTER.ROT>
7

>  <SCORE.INTER.VDW>
-18.8536

>  <SCORE.INTER.norm>
-0.189811

>  <SCORE.INTRA>
-0.567321

>  <SCORE.INTRA.DIHEDRAL>
-1.51896

>  <SCORE.INTRA.DIHEDRAL.0>
18.358

>  <SCORE.INTRA.POLAR>
0

>  <SCORE.INTRA.POLAR.0>
0

>  <SCORE.INTRA.REPUL>
0

>  <SCORE.INTRA.REPUL.0>
0

>  <SCORE.INTRA.VDW>
0.192159

>  <SCORE.INTRA.VDW.0>
-1.94569

>  <SCORE.INTRA.norm>
-0.0166859

>  <SCORE.RESTR>
3.75227

>  <SCORE.RESTR.CAVITY>
3.75227

>  <SCORE.RESTR.norm>
0.110361

>  <SCORE.SYSTEM>
17.8449

>  <SCORE.SYSTEM.CONST>
0

>  <SCORE.SYSTEM.DIHEDRAL>
5.72265

>  <SCORE.SYSTEM.POLAR>
-0.744891

>  <SCORE.SYSTEM.VDW>
17.5162

>  <SCORE.SYSTEM.norm>
0.524851

>  <SCORE.heavy>
34

>  <SCORE.norm>
0.428715

$$$$
RAL.pdb
  rDOCK(R)          3D
libRbt.so/2013.1/901 2013/11/27
 36 40  0  0  0  0  0  0  0  0999 V2000
   34.0457   -3.5925   19.5401 C   0  0  0  0  0  0
   34.6390   -2.3687   19.3660 C   0  0  0  0  0  0
   34.8603   -1.8297   18.1294 C   0  0  0  0  0  0
   35.4353   -0.5839   18.0925 O   0  0  0  0  0  0
   34.4542   -2.5365   16.9917 C   0  0  0  0  0  0
   33.8294   -3.7459   17.1716 C   0  0  0  0  0  0
   33.2858   -4.8261   16.0452 S   0  0  0  0  0  0
   32.6777   -5.9897   17.1063 C   0  0  0  0  0  0
   32.1110   -7.2955   16.6640 C   0  0  0  0  0  0
   31.9150   -7.4222   15.3025 C   0  0  0  0  0  0
   31.4729   -8.6404   14.8127 C   0  0  0  0  0  0
   31.1923   -9.6976   15.6558 C   0  0  0  0  0  0
   30.7558  -10.8870   15.0697 O   0  0  0  0  0  0
   31.4325   -9.5840   17.0093 C   0  0  0  0  0  0
   31.8919   -8.3637   17.4895 C   0  0  0  0  0  0
   33.6268   -4.2912   18.4715 C   0  0  0  0  0  0
   32.9878   -5.5970   18.4255 C   0  0  0  0  0  0
   32.7232   -6.3329   19.5647 C   0  0  0  0  0  0
   31.6179   -6.2280   20.1111 O   0  0  0  0  0  0
   33.7073   -7.2336   20.1752 C   0  0  0  0  0  0
   33.5106   -7.7324   21.4472 C   0  0  0  0  0  0
   34.4244   -8.5704   22.0564 C   0  0  0  0  0  0
   35.5941   -8.8960   21.3720 C   0  0  0  0  0  0
   35.7981   -8.4084   20.0935 C   0  0  0  0  0  0
   34.8525   -7.5919   19.4960 C   0  0  0  0  0  0
   36.6325   -9.6850   21.7703 O   0  0  0  0  0  0
   36.9771   -9.6334   23.1464 C   0  0  0  0  0  0
   37.4923   -8.2654   23.5062 C   0  0  0  0  0  0
   38.6633   -7.5688   23.0091 N   0  0  0  0  0  0
   38.4688   -7.2743   21.5750 C   0  0  0  0  0  0
   39.5820   -6.4001   20.9632 C   0  0  0  0  0  0
   40.8893   -7.1999   21.0832 C   0  0  0  0  0  0
   41.1194   -7.3123   22.6217 C   0  0  0  0  0  0
   39.9892   -8.1942   23.1807 C   0  0  0  0  0  0
   35.4513   -0.0989   17.2910 H   0  0  0  0  0  0
   30.5177  -11.6153   15.6091 H   0  0  0  0  0  0
  1  2  2  0  0  0
  1 16  1  0  0  0
  2  3  1  0  0  0
  3  4  1  0  0  0
  3  5  2  0  0  0
  4 35  1  0  0  0
  5  6  1  0  0  0
  6  7  1  0  0  0
  6 16  2  0  0  0
  7  8  1  0  0  0
  8  9  1  0  0  0
  8 17  2  0  0  0
  9 10  2  0  0  0
  9 15  1  0  0  0
 10 11  1  0  0  0
 11 12  2  0  0  0
 12 13  1  0  0  0
 12 14  1  0  0  0
 13 36  1  0  0  0
 14 15  2  0  0  0
 16 17  1  0  0  0
 17 18  1  0  0  0
 18 19  2  0  0  0
 18 20  1  0  0  0
 20 21  2  0  0  0
 20 25  1  0  0  0
 21 22  1  0  0  0
 22 23  2  0  0  0
 23 24  1  0  0  0
 23 26  1  0  0  0
 24 25  2  0  0  0
 26 27  1  0  0  0
 27 28  1  0  0  0
 28 29  1  0  0  0
 29 30  1  0  0  0
 29 34  1  0  0  0
 30 31  1  0  0  0
 31 32  1  0  0  0
 32 33  1  0  0  0
 33 34  1  0  0  0
M  END
>  <CHROM.0>
-1.98370034,-85.92627688,57.87443519

>  <CHROM.1>
-167.71766199,-9.81059641,-177.22223590,-86.41687692,166.54377780,-35.82570883
-65.27400183,-62.29842709,65.95900595,34.79160419,-6.70961679,19.22632653
-2.84323824,0.68779592,2.86942884

>  <FORMUL>
      RAL    C28 H27 N1 O4 S1

>  <HET>
 RAL  A 600      34

>  <HETNAM>
     RAL RALOXIFENE

>  <Name>
RAL.pdb

>  <RI>
0

>  <Rbt.Current_Directory>
/home/malgorzata/Desktop/rDOCK_IFD/Wyniki/6c_estrogen_receptor/IFD

>  <Rbt.Executable>
rbdock ($Id: //depot/dev/client3/rdock/2013.1/src/exe/rbdock.cxx#4 $)

>  <Rbt.Library>
libRbt.so (2013.1, Build901 2013/11/27)

>  <Rbt.Parameter_File>
/home/malgorzata/Desktop/rDock_2013.1_src/data/scripts/hard_docking.prm

>  <Rbt.Receptor>
cavity.prm

>  <SCORE>
17.0763

>  <SCORE.INTER>
-1.85257

>  <SCORE.INTER.CONST>
1

>  <SCORE.INTER.POLAR>
0

>  <SCORE.INTER.REPUL>
0

>  <SCORE.INTER.ROT>
7

>  <SCORE.INTER.VDW>
-14.2526

>  <SCORE.INTER.norm>
-0.0544874

>  <SCORE.INTRA>
-2.37575

>  <SCORE.INTRA.DIHEDRAL>
-4.02888

>  <SCORE.INTRA.DIHEDRAL.0>
18.358

>  <SCORE.INTRA.POLAR>
0

>  <SCORE.INTRA.POLAR.0>
0

>  <SCORE.INTRA.REPUL>
0

>  <SCORE.INTRA.REPUL.0>
0

>  <SCORE.INTRA.VDW>
-0.361308

>  <SCORE.INTRA.VDW.0>
-1.94569

>  <SCORE.INTRA.norm>
-0.0698749

>  <SCORE.RESTR>
3.66442

>  <SCORE.RESTR.CAVITY>
3.66442

>  <SCORE.RESTR.norm>
0.107777

>  <SCORE.SYSTEM>
17.6402

>  <SCORE.SYSTEM.CONST>
0

>  <SCORE.SYSTEM.DIHEDRAL>
3.6361

>  <SCORE.SYSTEM.POLAR>
-0.911151

>  <SCORE.SYSTEM.VDW>
18.9201

>  <SCORE.SYSTEM.norm>
0.51883

>  <SCORE.heavy>
34

>  <SCORE.norm>
0.502244

$$$$
RAL.pdb
  rDOCK(R)          3D
libRbt.so/2013.1/901 2013/11/27
 36 40  0  0  0  0  0  0  0  0999 V2000
   33.8514   -9.0983   16.6934 C   0  0  0  0  0  0
   32.6523   -9.6759   16.3642 C   0  0  0  0  0  0
   31.8232  -10.2295   17.2995 C   0  0  0  0  0  0
   30.6373  -10.7490   16.8436 O   0  0  0  0  0  0
   32.1934  -10.1954   18.6488 C   0  0  0  0  0  0
   33.3788   -9.5855   18.9780 C   0  0  0  0  0  0
   34.1062   -9.4290   20.4537 S   0  0  0  0  0  0
   35.4754   -8.5772   19.9542 C   0  0  0  0  0  0
   36.5959   -8.2071   20.8649 C   0  0  0  0  0  0
   36.3157   -8.3041   22.2140 C   0  0  0  0  0  0
   37.3377   -8.0592   23.1168 C   0  0  0  0  0  0
   38.5988   -7.6868   22.6947 C   0  0  0  0  0  0
   39.5647   -7.4650   23.6779 O   0  0  0  0  0  0
   38.8888   -7.6354   21.3472 C   0  0  0  0  0  0
   37.8619   -7.8991   20.4490 C   0  0  0  0  0  0
   34.2312   -9.0316   17.9806 C   0  0  0  0  0  0
   35.4507   -8.4770   18.5471 C   0  0  0  0  0  0
   36.4428   -7.9169   17.7652 C   0  0  0  0  0  0
   36.9329   -8.5787   16.8416 O   0  0  0  0  0  0
   36.9610   -6.5627   17.9887 C   0  0  0  0  0  0
   38.1151   -6.1386   17.3613 C   0  0  0  0  0  0
   38.6377   -4.8756   17.5616 C   0  0  0  0  0  0
   37.9914   -4.0166   18.4487 C   0  0  0  0  0  0
   36.8296   -4.4281   19.0770 C   0  0  0  0  0  0
   36.3127   -5.6902   18.8370 C   0  0  0  0  0  0
   38.3235   -2.7444   18.8103 O   0  0  0  0  0  0
   37.4315   -1.7166   18.4066 C   0  0  0  0  0  0
   37.4778   -1.5406   16.9122 C   0  0  0  0  0  0
   36.8074   -2.3071   15.8794 N   0  0  0  0  0  0
   35.5598   -2.8675   16.4367 C   0  0  0  0  0  0
   34.6773   -3.5804   15.3923 C   0  0  0  0  0  0
   35.4978   -4.7629   14.8524 C   0  0  0  0  0  0
   36.6986   -4.0839   14.1245 C   0  0  0  0  0  0
   37.5465   -3.3935   15.2071 C   0  0  0  0  0  0
   29.8791  -10.7391   17.3940 H   0  0  0  0  0  0
   39.3351   -7.5318   24.5839 H   0  0  0  0  0  0
  1  2  2  0  0  0
  1 16  1  0  0  0
  2  3  1  0  0  0
  3  4  1  0  0  0
  3  5  2  0  0  0
  4 35  1  0  0  0
  5  6  1  0  0  0
  6  7  1  0  0  0
  6 16  2  0  0  0
  7  8  1  0  0  0
  8  9  1  0  0  0
  8 17  2  0  0  0
  9 10  2  0  0  0
  9 15  1  0  0  0
 10 11  1  0  0  0
 11 12  2  0  0  0
 12 13  1  0  0  0
 12 14  1  0  0  0
 13 36  1  0  0  0
 14 15  2  0  0  0
 16 17  1  0  0  0
 17 18  1  0  0  0
 18 19  2  0  0  0
 18 20  1  0  0  0
 20 21  2  0  0  0
 20 25  1  0  0  0
 21 22  1  0  0  0
 22 23  2  0  0  0
 23 24  1  0  0  0
 23 26  1  0  0  0
 24 25  2  0  0  0
 26 27  1  0  0  0
 27 28  1  0  0  0
 28 29  1  0  0  0
 29 30  1  0  0  0
 29 34  1  0  0  0
 30 31  1  0  0  0
 31 32  1  0  0  0
 32 33  1  0  0  0
 33 34  1  0  0  0
M  END
>  <CHROM.0>
-167.21283178,86.57154597,84.56629380

>  <CHROM.1>
-149.06981747,-15.47295048,-2.80703084,125.78428208,167.44773029,113.30198953
-68.88879503,81.37713317,28.05279365,36.02959251,-6.68377606,18.46530164
2.21289060,0.74290866,2.32743190

>  <FORMUL>
      RAL    C28 H27 N1 O4 S1

>  <HET>
 RAL  A 600      34

>  <HETNAM>
     RAL RALOXIFENE

>  <Name>
RAL.pdb

>  <RI>
0

>  <Rbt.Current_Directory>
/home/malgorzata/Desktop/rDOCK_IFD/Wyniki/6c_estrogen_receptor/IFD

>  <Rbt.Executable>
rbdock ($Id: //depot/dev/client3/rdock/2013.1/src/exe/rbdock.cxx#4 $)

>  <Rbt.Library>
libRbt.so (2013.1, Build901 2013/11/27)

>  <Rbt.Parameter_File>
/home/malgorzata/Desktop/rDock_2013.1_src/data/scripts/hard_docking.prm

>  <Rbt.Receptor>
cavity.prm

>  <SCORE>
116.746

>  <SCORE.INTER>
-5.57253

>  <SCORE.INTER.CONST>
1

>  <SCORE.INTER.POLAR>
-0.790569

>  <SCORE.INTER.REPUL>
0

>  <SCORE.INTER.ROT>
7

>  <SCORE.INTER.VDW>
-15.2846

>  <SCORE.INTER.norm>
-0.163898

>  <SCORE.INTRA>
-0.524286

>  <SCORE.INTRA.DIHEDRAL>
-0.956743

>  <SCORE.INTRA.DIHEDRAL.0>
18.358

>  <SCORE.INTRA.POLAR>
0

>  <SCORE.INTRA.POLAR.0>
0

>  <SCORE.INTRA.REPUL>
0

>  <SCORE.INTRA.REPUL.0>
0

>  <SCORE.INTRA.VDW>
-0.0459146

>  <SCORE.INTRA.VDW.0>
-1.94569

>  <SCORE.INTRA.norm>
-0.0154202

>  <SCORE.RESTR>
1.58593

>  <SCORE.RESTR.CAVITY>
1.58593

>  <SCORE.RESTR.norm>
0.0466451

>  <SCORE.SYSTEM>
121.257

>  <SCORE.SYSTEM.CONST>
0

>  <SCORE.SYSTEM.DIHEDRAL>
3.7852

>  <SCORE.SYSTEM.REPUL>
0.177829

>  <SCORE.SYSTEM.VDW>
118.475

>  <SCORE.SYSTEM.norm>
3.56639

>  <SCORE.heavy>
34

>  <SCORE.norm>
3.43371

$$$$
RAL.pdb
  rDOCK(R)          3D
libRbt.so/2013.1/901 2013/11/27
 36 40  0  0  0  0  0  0  0  0999 V2000
   33.5225   -5.4431   19.0778 C   0  0  0  0  0  0
   33.0722   -6.2218   18.0431 C   0  0  0  0  0  0
   31.7712   -6.6296   17.9439 C   0  0  0  0  0  0
   31.4417   -7.3813   16.8437 O   0  0  0  0  0  0
   30.8515   -6.2285   18.9196 C   0  0  0  0  0  0
   31.2990   -5.4202   19.9355 C   0  0  0  0  0  0
   30.4828   -4.8282   21.2448 S   0  0  0  0  0  0
   31.7526   -3.9639   21.9451 C   0  0  0  0  0  0
   31.6475   -3.2548   23.2519 C   0  0  0  0  0  0
   32.1030   -1.9507   23.2533 C   0  0  0  0  0  0
   31.9554   -1.2041   24.4111 C   0  0  0  0  0  0
   31.4060   -1.7488   25.5550 C   0  0  0  0  0  0
   31.2946   -0.9180   26.6714 O   0  0  0  0  0  0
   30.9100   -3.0358   25.5378 C   0  0  0  0  0  0
   31.0472   -3.7714   24.3670 C   0  0  0  0  0  0
   32.6642   -5.0243   20.0230 C   0  0  0  0  0  0
   32.9246   -4.2083   21.1986 C   0  0  0  0  0  0
   34.1863   -3.7379   21.5092 C   0  0  0  0  0  0
   34.6104   -3.8579   22.6654 O   0  0  0  0  0  0
   35.0537   -3.0808   20.5253 C   0  0  0  0  0  0
   36.4115   -2.9693   20.7476 C   0  0  0  0  0  0
   37.2535   -2.3436   19.8488 C   0  0  0  0  0  0
   36.7053   -1.7832   18.6964 C   0  0  0  0  0  0
   35.3470   -1.8959   18.4593 C   0  0  0  0  0  0
   34.5299   -2.5523   19.3644 C   0  0  0  0  0  0
   37.3287   -1.1148   17.6845 O   0  0  0  0  0  0
   38.5709   -1.6433   17.2456 C   0  0  0  0  0  0
   38.8971   -1.1368   15.8659 C   0  0  0  0  0  0
   38.2250   -1.4073   14.6094 N   0  0  0  0  0  0
   38.6466   -2.7356   14.1205 C   0  0  0  0  0  0
   37.8855   -3.2064   12.8647 C   0  0  0  0  0  0
   38.2034   -2.1969   11.7499 C   0  0  0  0  0  0
   37.5699   -0.8655   12.2587 C   0  0  0  0  0  0
   38.3650   -0.4384   13.5049 C   0  0  0  0  0  0
   30.5418   -7.5472   16.6420 H   0  0  0  0  0  0
   31.3816    0.0101   26.5753 H   0  0  0  0  0  0
  1  2  2  0  0  0
  1 16  1  0  0  0
  2  3  1  0  0  0
  3  4  1  0  0  0
  3  5  2  0  0  0
  4 35  1  0  0  0
  5  6  1  0  0  0
  6  7  1  0  0  0
  6 16  2  0  0  0
  7  8  1  0  0  0
  8  9  1  0  0  0
  8 17  2  0  0  0
  9 10  2  0  0  0
  9 15  1  0  0  0
 10 11  1  0  0  0
 11 12  2  0  0  0
 12 13  1  0  0  0
 12 14  1  0  0  0
 13 36  1  0  0  0
 14 15  2  0  0  0
 16 17  1  0  0  0
 17 18  1  0  0  0
 18 19  2  0  0  0
 18 20  1  0  0  0
 20 21  2  0  0  0
 20 25  1  0  0  0
 21 22  1  0  0  0
 22 23  2  0  0  0
 23 24  1  0  0  0
 23 26  1  0  0  0
 24 25  2  0  0  0
 26 27  1  0  0  0
 27 28  1  0  0  0
 28 29  1  0  0  0
 29 30  1  0  0  0
 29 34  1  0  0  0
 30 31  1  0  0  0
 31 32  1  0  0  0
 32 33  1  0  0  0
 33 34  1  0  0  0
M  END
>  <CHROM.0>
-3.02048265,-97.36860472,110.94076488

>  <CHROM.1>
-168.34717161,-131.14255592,15.22905567,47.74540645,-161.46128585,41.44773373
160.09619441,-66.71982450,-78.96463548,34.26093209,-3.21433895,19.40586023
2.42029501,0.70033698,1.09633330

>  <FORMUL>
      RAL    C28 H27 N1 O4 S1

>  <HET>
 RAL  A 600      34

>  <HETNAM>
     RAL RALOXIFENE

>  <Name>
RAL.pdb

>  <RI>
0

>  <Rbt.Current_Directory>
/home/malgorzata/Desktop/rDOCK_IFD/Wyniki/6c_estrogen_receptor/IFD

>  <Rbt.Executable>
rbdock ($Id: //depot/dev/client3/rdock/2013.1/src/exe/rbdock.cxx#4 $)

>  <Rbt.Library>
libRbt.so (2013.1, Build901 2013/11/27)

>  <Rbt.Parameter_File>
/home/malgorzata/Desktop/rDock_2013.1_src/data/scripts/hard_docking.prm

>  <Rbt.Receptor>
cavity.prm

>  <SCORE>
25.9578

>  <SCORE.INTER>
-8.4921

>  <SCORE.INTER.CONST>
1

>  <SCORE.INTER.POLAR>
-0.0824736

>  <SCORE.INTER.REPUL>
0

>  <SCORE.INTER.ROT>
7

>  <SCORE.INTER.VDW>
-20.6117

>  <SCORE.INTER.norm>
-0.249768

>  <SCORE.INTRA>
0.356289

>  <SCORE.INTRA.DIHEDRAL>
2.42487

>  <SCORE.INTRA.DIHEDRAL.0>
18.358

>  <SCORE.INTRA.POLAR>
0

>  <SCORE.INTRA.POLAR.0>
0

>  <SCORE.INTRA.REPUL>
0

>  <SCORE.INTRA.REPUL.0>
0

>  <SCORE.INTRA.VDW>
-0.856146

>  <SCORE.INTRA.VDW.0>
-1.94569

>  <SCORE.INTRA.norm>
0.0104791

>  <SCORE.RESTR>
14.4526

>  <SCORE.RESTR.CAVITY>
14.4526

>  <SCORE.RESTR.norm>
0.425077

>  <SCORE.SYSTEM>
19.6409

>  <SCORE.SYSTEM.CONST>
0

>  <SCORE.SYSTEM.DIHEDRAL>
5.76607

>  <SCORE.SYSTEM.POLAR>
-0.21338

>  <SCORE.SYSTEM.VDW>
17.4834

>  <SCORE.SYSTEM.norm>
0.577675

>  <SCORE.heavy>
34

>  <SCORE.norm>
0.763463

$$$$
RAL.pdb
  rDOCK(R)          3D
libRbt.so/2013.1/901 2013/11/27
 36 40  0  0  0  0  0  0  0  0999 V2000
   35.1128   -6.4193   19.7800 C   0  0  0  0  0  0
   35.2270   -7.4282   20.7013 C   0  0  0  0  0  0
   35.8510   -7.2554   21.9053 C   0  0  0  0  0  0
   35.8717   -8.3362   22.7511 O   0  0  0  0  0  0
   36.3812   -6.0010   22.2279 C   0  0  0  0  0  0
   36.2344   -4.9841   21.3169 C   0  0  0  0  0  0
   36.7854   -3.4273   21.3813 S   0  0  0  0  0  0
   36.1758   -2.8983   19.8987 C   0  0  0  0  0  0
   36.4328   -1.5420   19.3364 C   0  0  0  0  0  0
   37.7403   -1.1052   19.4247 C   0  0  0  0  0  0
   38.0681    0.1094   18.8443 C   0  0  0  0  0  0
   37.1146    0.8935   18.2254 C   0  0  0  0  0  0
   37.5405    2.0995   17.6660 O   0  0  0  0  0  0
   35.8200    0.4348   18.0979 C   0  0  0  0  0  0
   35.5042   -0.7922   18.6685 C   0  0  0  0  0  0
   35.5942   -5.1971   20.0628 C   0  0  0  0  0  0
   35.5886   -3.9984   19.2389 C   0  0  0  0  0  0
   35.0520   -3.9772   17.9656 C   0  0  0  0  0  0
   35.3974   -3.0884   17.1769 O   0  0  0  0  0  0
   34.0682   -4.9615   17.5015 C   0  0  0  0  0  0
   34.2553   -5.6363   16.3118 C   0  0  0  0  0  0
   33.3414   -6.5580   15.8391 C   0  0  0  0  0  0
   32.1811   -6.7888   16.5762 C   0  0  0  0  0  0
   31.9869   -6.1243   17.7739 C   0  0  0  0  0  0
   32.9326   -5.2253   18.2377 C   0  0  0  0  0  0
   31.1444   -7.6325   16.3065 O   0  0  0  0  0  0
   31.4384   -8.7608   15.4970 C   0  0  0  0  0  0
   32.5322   -9.5839   16.1236 C   0  0  0  0  0  0
   32.6461  -10.0693   17.4855 N   0  0  0  0  0  0
   31.5588  -11.0361   17.7387 C   0  0  0  0  0  0
   31.6587  -11.7402   19.1069 C   0  0  0  0  0  0
   31.5422  -10.6441   20.1784 C   0  0  0  0  0  0
   32.8168   -9.7717   19.9616 C   0  0  0  0  0  0
   32.6657   -9.0905   18.5902 C   0  0  0  0  0  0
   36.2133   -8.2456   23.6189 H   0  0  0  0  0  0
   38.4491    2.3282   17.6817 H   0  0  0  0  0  0
  1  2  2  0  0  0
  1 16  1  0  0  0
  2  3  1  0  0  0
  3  4  1  0  0  0
  3  5  2  0  0  0
  4 35  1  0  0  0
  5  6  1  0  0  0
  6  7  1  0  0  0
  6 16  2  0  0  0
  7  8  1  0  0  0
  8  9  1  0  0  0
  8 17  2  0  0  0
  9 10  2  0  0  0
  9 15  1  0  0  0
 10 11  1  0  0  0
 11 12  2  0  0  0
 12 13  1  0  0  0
 12 14  1  0  0  0
 13 36  1  0  0  0
 14 15  2  0  0  0
 16 17  1  0  0  0
 17 18  1  0  0  0
 18 19  2  0  0  0
 18 20  1  0  0  0
 20 21  2  0  0  0
 20 25  1  0  0  0
 21 22  1  0  0  0
 22 23  2  0  0  0
 23 24  1  0  0  0
 23 26  1  0  0  0
 24 25  2  0  0  0
 26 27  1  0  0  0
 27 28  1  0  0  0
 28 29  1  0  0  0
 29 30  1  0  0  0
 29 34  1  0  0  0
 30 31  1  0  0  0
 31 32  1  0  0  0
 32 33  1  0  0  0
 33 34  1  0  0  0
M  END
>  <CHROM.0>
-1.73030092,-83.20408379,57.25074330

>  <CHROM.1>
-174.10847854,44.66078445,3.04846846,21.01600181,-129.27813482,25.88995071
57.39597018,49.48339204,65.12780501,34.59046141,-5.46969828,18.84701627,-2.45002075
-0.92797479,-0.67275791

>  <FORMUL>
      RAL    C28 H27 N1 O4 S1

>  <HET>
 RAL  A 600      34

>  <HETNAM>
     RAL RALOXIFENE

>  <Name>
RAL.pdb

>  <RI>
0

>  <Rbt.Current_Directory>
/home/malgorzata/Desktop/rDOCK_IFD/Wyniki/6c_estrogen_receptor/IFD

>  <Rbt.Executable>
rbdock ($Id: //depot/dev/client3/rdock/2013.1/src/exe/rbdock.cxx#4 $)

>  <Rbt.Library>
libRbt.so (2013.1, Build901 2013/11/27)

>  <Rbt.Parameter_File>
/home/malgorzata/Desktop/rDock_2013.1_src/data/scripts/hard_docking.prm

>  <Rbt.Receptor>
cavity.prm

>  <SCORE>
18.4417

>  <SCORE.INTER>
-4.06667

>  <SCORE.INTER.CONST>
1

>  <SCORE.INTER.POLAR>
0

>  <SCORE.INTER.REPUL>
0

>  <SCORE.INTER.ROT>
7

>  <SCORE.INTER.VDW>
-16.4667

>  <SCORE.INTER.norm>
-0.119608

>  <SCORE.INTRA>
0.179845

>  <SCORE.INTRA.DIHEDRAL>
-0.71811

>  <SCORE.INTRA.DIHEDRAL.0>
18.358

>  <SCORE.INTRA.POLAR>
0

>  <SCORE.INTRA.POLAR.0>
0

>  <SCORE.INTRA.REPUL>
0

>  <SCORE.INTRA.REPUL.0>
0

>  <SCORE.INTRA.VDW>
0.5389

>  <SCORE.INTRA.VDW.0>
-1.94569

>  <SCORE.INTRA.norm>
0.00528957

>  <SCORE.RESTR>
4.66531

>  <SCORE.RESTR.CAVITY>
4.66531

>  <SCORE.RESTR.norm>
0.137215

>  <SCORE.SYSTEM>
17.6632

>  <SCORE.SYSTEM.CONST>
0

>  <SCORE.SYSTEM.DIHEDRAL>
3.14392

>  <SCORE.SYSTEM.POLAR>
-0.932924

>  <SCORE.SYSTEM.VDW>
19.2632

>  <SCORE.SYSTEM.norm>
0.519505

>  <SCORE.heavy>
34

>  <SCORE.norm>
0.542402

$$$$
RAL.pdb
  rDOCK(R)          3D
libRbt.so/2013.1/901 2013/11/27
 36 40  0  0  0  0  0  0  0  0999 V2000
   33.3727   -8.2773   16.2790 C   0  0  0  0  0  0
   32.3352   -9.1036   15.9316 C   0  0  0  0  0  0
   31.0617   -8.6434   15.7444 C   0  0  0  0  0  0
   30.1195   -9.5684   15.3693 O   0  0  0  0  0  0
   30.7986   -7.2768   15.8927 C   0  0  0  0  0  0
   31.8472   -6.4477   16.2069 C   0  0  0  0  0  0
   31.8508   -4.8202   16.4941 S   0  0  0  0  0  0
   33.5018   -4.6359   16.7940 C   0  0  0  0  0  0
   34.1268   -3.3491   17.2129 C   0  0  0  0  0  0
   34.9233   -3.4198   18.3393 C   0  0  0  0  0  0
   35.6049   -2.2803   18.7348 C   0  0  0  0  0  0
   35.4695   -1.0863   18.0541 C   0  0  0  0  0  0
   36.1991    0.0067   18.5250 O   0  0  0  0  0  0
   34.7106   -1.0295   16.9037 C   0  0  0  0  0  0
   34.0440   -2.1817   16.5051 C   0  0  0  0  0  0
   33.1610   -6.9571   16.4126 C   0  0  0  0  0  0
   34.1040   -5.9117   16.7780 C   0  0  0  0  0  0
   35.4306   -6.1762   17.0603 C   0  0  0  0  0  0
   36.3146   -5.5981   16.4156 O   0  0  0  0  0  0
   35.8481   -7.1332   18.0908 C   0  0  0  0  0  0
   34.9934   -7.4781   19.1184 C   0  0  0  0  0  0
   35.3606   -8.3643   20.1125 C   0  0  0  0  0  0
   36.6463   -8.9019   20.0885 C   0  0  0  0  0  0
   37.5087   -8.5697   19.0590 C   0  0  0  0  0  0
   37.1050   -7.6995   18.0603 C   0  0  0  0  0  0
   37.2295   -9.7760   20.9576 O   0  0  0  0  0  0
   38.4435   -9.3556   21.5614 C   0  0  0  0  0  0
   38.2478   -8.0428   22.2718 C   0  0  0  0  0  0
   38.3766   -6.6942   21.7540 N   0  0  0  0  0  0
   37.0343   -6.1897   21.4008 C   0  0  0  0  0  0
   37.0186   -4.7068   20.9784 C   0  0  0  0  0  0
   37.8855   -4.5975   19.7137 C   0  0  0  0  0  0
   39.3172   -4.9698   20.2079 C   0  0  0  0  0  0
   39.2800   -6.4541   20.6117 C   0  0  0  0  0  0
   30.3457  -10.4767   15.3265 H   0  0  0  0  0  0
   36.0989    0.8461   18.1207 H   0  0  0  0  0  0
  1  2  2  0  0  0
  1 16  1  0  0  0
  2  3  1  0  0  0
  3  4  1  0  0  0
  3  5  2  0  0  0
  4 35  1  0  0  0
  5  6  1  0  0  0
  6  7  1  0  0  0
  6 16  2  0  0  0
  7  8  1  0  0  0
  8  9  1  0  0  0
  8 17  2  0  0  0
  9 10  2  0  0  0
  9 15  1  0  0  0
 10 11  1  0  0  0
 11 12  2  0  0  0
 12 13  1  0  0  0
 12 14  1  0  0  0
 13 36  1  0  0  0
 14 15  2  0  0  0
 16 17  1  0  0  0
 17 18  1  0  0  0
 18 19  2  0  0  0
 18 20  1  0  0  0
 20 21  2  0  0  0
 20 25  1  0  0  0
 21 22  1  0  0  0
 22 23  2  0  0  0
 23 24  1  0  0  0
 23 26  1  0  0  0
 24 25  2  0  0  0
 26 27  1  0  0  0
 27 28  1  0  0  0
 28 29  1  0  0  0
 29 30  1  0  0  0
 29 34  1  0  0  0
 30 31  1  0  0  0
 31 32  1  0  0  0
 32 33  1  0  0  0
 33 34  1  0  0  0
M  END
>  <CHROM.0>
-1.82314607,-84.19612317,55.78310399

>  <CHROM.1>
5.34152431,128.31071111,-176.61126767,-56.07852720,-21.99747040,-123.72584033
55.97720204,-88.43350580,97.81549372,35.19290443,-6.00784858,18.31746828
2.97683290,-0.65689314,-0.14454236

>  <FORMUL>
      RAL    C28 H27 N1 O4 S1

>  <HET>
 RAL  A 600      34

>  <HETNAM>
     RAL RALOXIFENE

>  <Name>
RAL.pdb

>  <RI>
0

>  <Rbt.Current_Directory>
/home/malgorzata/Desktop/rDOCK_IFD/Wyniki/6c_estrogen_receptor/IFD

>  <Rbt.Executable>
rbdock ($Id: //depot/dev/client3/rdock/2013.1/src/exe/rbdock.cxx#4 $)

>  <Rbt.Library>
libRbt.so (2013.1, Build901 2013/11/27)

>  <Rbt.Parameter_File>
/home/malgorzata/Desktop/rDock_2013.1_src/data/scripts/hard_docking.prm

>  <Rbt.Receptor>
cavity.prm

>  <SCORE>
19.094

>  <SCORE.INTER>
-1.31752

>  <SCORE.INTER.CONST>
1

>  <SCORE.INTER.POLAR>
0

>  <SCORE.INTER.REPUL>
0.0145937

>  <SCORE.INTER.ROT>
7

>  <SCORE.INTER.VDW>
-13.7905

>  <SCORE.INTER.norm>
-0.0387504

>  <SCORE.INTRA>
2.03851

>  <SCORE.INTRA.DIHEDRAL>
6.09142

>  <SCORE.INTRA.DIHEDRAL.0>
18.358

>  <SCORE.INTRA.POLAR>
0

>  <SCORE.INTRA.POLAR.0>
0

>  <SCORE.INTRA.REPUL>
0

>  <SCORE.INTRA.REPUL.0>
0

>  <SCORE.INTRA.VDW>
-1.0072

>  <SCORE.INTRA.VDW.0>
-1.94569

>  <SCORE.INTRA.norm>
0.0599562

>  <SCORE.RESTR>
0.745315

>  <SCORE.RESTR.CAVITY>
0.745315

>  <SCORE.RESTR.norm>
0.021921

>  <SCORE.SYSTEM>
17.6277

>  <SCORE.SYSTEM.CONST>
0

>  <SCORE.SYSTEM.DIHEDRAL>
3.31882

>  <SCORE.SYSTEM.POLAR>
-0.934646

>  <SCORE.SYSTEM.VDW>
19.1461

>  <SCORE.SYSTEM.norm>
0.518461

>  <SCORE.heavy>
34

>  <SCORE.norm>
0.561588

$$$$
