RAL.pdb
  rDOCK(R)          3D
libRbt.so/2013.1/901 2013/11/27
 36 40  0  0  0  0  0  0  0  0999 V2000
   35.2256   -0.1830   28.0890 C   0  0  0  0  0  0
   36.0165    0.8350   28.5561 C   0  0  0  0  0  0
   35.5455    2.1051   28.7395 C   0  0  0  0  0  0
   36.4312    3.0259   29.2409 O   0  0  0  0  0  0
   34.2028    2.3845   28.4606 C   0  0  0  0  0  0
   33.4056    1.3544   28.0259 C   0  0  0  0  0  0
   31.8165    1.3742   27.5725 S   0  0  0  0  0  0
   31.6563   -0.2638   27.1972 C   0  0  0  0  0  0
   30.4168   -0.8632   26.6262 C   0  0  0  0  0  0
   30.3295   -0.8356   25.2479 C   0  0  0  0  0  0
   29.2454   -1.4530   24.6454 C   0  0  0  0  0  0
   28.2485   -2.0493   25.3923 C   0  0  0  0  0  0
   27.1976   -2.6495   24.6964 O   0  0  0  0  0  0
   28.3606   -2.1161   26.7655 C   0  0  0  0  0  0
   29.4600   -1.5088   27.3599 C   0  0  0  0  0  0
   33.9273    0.0442   27.8276 C   0  0  0  0  0  0
   32.9208   -0.8768   27.3234 C   0  0  0  0  0  0
   33.2068   -2.1951   27.0234 C   0  0  0  0  0  0
   33.7349   -2.9117   27.8830 O   0  0  0  0  0  0
   32.9248   -2.7908   25.7128 C   0  0  0  0  0  0
   33.4537   -2.2419   24.5619 C   0  0  0  0  0  0
   33.1958   -2.7693   23.3114 C   0  0  0  0  0  0
   32.3506   -3.8731   23.2117 C   0  0  0  0  0  0
   31.8213   -4.4365   24.3591 C   0  0  0  0  0  0
   32.1183   -3.9037   25.6024 C   0  0  0  0  0  0
   31.9467   -4.5496   22.0988 O   0  0  0  0  0  0
   32.7789   -4.4419   20.9538 C   0  0  0  0  0  0
   32.5748   -3.1104   20.2817 C   0  0  0  0  0  0
   31.5715   -2.7205   19.3096 N   0  0  0  0  0  0
   30.2332   -2.9087   19.9052 C   0  0  0  0  0  0
   29.0811   -2.3858   19.0237 C   0  0  0  0  0  0
   29.1120   -3.2047   17.7231 C   0  0  0  0  0  0
   30.4718   -2.8136   17.0667 C   0  0  0  0  0  0
   31.5835   -3.3600   17.9794 C   0  0  0  0  0  0
   37.1230    3.3533   28.7003 H   0  0  0  0  0  0
   26.7727   -3.4058   25.0506 H   0  0  0  0  0  0
  1  2  2  0  0  0
  1 16  1  0  0  0
  2  3  1  0  0  0
  3  4  1  0  0  0
  3  5  2  0  0  0
  4 35  1  0  0  0
  5  6  1  0  0  0
  6  7  1  0  0  0
  6 16  2  0  0  0
  7  8  1  0  0  0
  8  9  1  0  0  0
  8 17  2  0  0  0
  9 10  2  0  0  0
  9 15  1  0  0  0
 10 11  1  0  0  0
 11 12  2  0  0  0
 12 13  1  0  0  0
 12 14  1  0  0  0
 13 36  1  0  0  0
 14 15  2  0  0  0
 16 17  1  0  0  0
 17 18  1  0  0  0
 18 19  2  0  0  0
 18 20  1  0  0  0
 20 21  2  0  0  0
 20 25  1  0  0  0
 21 22  1  0  0  0
 22 23  2  0  0  0
 23 24  1  0  0  0
 23 26  1  0  0  0
 24 25  2  0  0  0
 26 27  1  0  0  0
 27 28  1  0  0  0
 28 29  1  0  0  0
 29 30  1  0  0  0
 29 34  1  0  0  0
 30 31  1  0  0  0
 31 32  1  0  0  0
 32 33  1  0  0  0
 33 34  1  0  0  0
M  END
>  <CHROM.0>
-152.87835019,-60.56480275,-142.54054469

>  <CHROM.1>
72.52260795,87.85625226,147.75371586,-125.45900994,56.89285367,22.77957476
-76.93226845,-84.96018060,59.46496912,31.93315861,-1.56991451,24.66221879
-1.21902195,-0.20373513,-1.94471249

>  <FORMUL>
      RAL    C28 H27 N1 O4 S1

>  <HET>
 RAL  A 600      34

>  <HETNAM>
     RAL RALOXIFENE

>  <Name>
RAL.pdb

>  <RI>
0

>  <Rbt.Current_Directory>
/home/malgorzata/Desktop/rDOCK_IFD/Wyniki/6b_estrogen_receptor

>  <Rbt.Executable>
rbdock ($Id: //depot/dev/client3/rdock/2013.1/src/exe/rbdock.cxx#4 $)

>  <Rbt.Library>
libRbt.so (2013.1, Build901 2013/11/27)

>  <Rbt.Parameter_File>
/home/malgorzata/Desktop/rDock_2013.1_src/data/scripts/soft_docking.prm

>  <Rbt.Receptor>
cavity.prm

>  <SCORE>
-30.1418

>  <SCORE.INTER>
-31.8217

>  <SCORE.INTER.CONST>
1

>  <SCORE.INTER.POLAR>
-0.838373

>  <SCORE.INTER.REPUL>
0.19258

>  <SCORE.INTER.ROT>
7

>  <SCORE.INTER.VDW>
-42.3342

>  <SCORE.INTER.norm>
-0.935933

>  <SCORE.INTRA>
1.95182

>  <SCORE.INTRA.DIHEDRAL>
20.6376

>  <SCORE.INTRA.DIHEDRAL.0>
18.358

>  <SCORE.INTRA.POLAR>
0

>  <SCORE.INTRA.POLAR.0>
0

>  <SCORE.INTRA.REPUL>
0

>  <SCORE.INTRA.REPUL.0>
0

>  <SCORE.INTRA.VDW>
-2.17569

>  <SCORE.INTRA.VDW.0>
-1.94569

>  <SCORE.INTRA.norm>
0.0574064

>  <SCORE.RESTR>
0.331847

>  <SCORE.RESTR.CAVITY>
0.331847

>  <SCORE.RESTR.norm>
0.00976021

>  <SCORE.SYSTEM>
-0.603756

>  <SCORE.SYSTEM.CONST>
0

>  <SCORE.SYSTEM.DIHEDRAL>
0.80215

>  <SCORE.SYSTEM.VDW>
-1.00483

>  <SCORE.SYSTEM.norm>
-0.0177575

>  <SCORE.heavy>
34

>  <SCORE.norm>
-0.886524

$$$$
RAL.pdb
  rDOCK(R)          3D
libRbt.so/2013.1/901 2013/11/27
 36 40  0  0  0  0  0  0  0  0999 V2000
   33.3952   -1.1871   27.6984 C   0  0  0  0  0  0
   34.5485   -0.5780   28.1210 C   0  0  0  0  0  0
   34.5532    0.6546   28.7122 C   0  0  0  0  0  0
   35.7713    1.1409   29.1170 O   0  0  0  0  0  0
   33.3396    1.3214   28.9151 C   0  0  0  0  0  0
   32.1838    0.6929   28.5217 C   0  0  0  0  0  0
   30.6225    1.2317   28.5788 S   0  0  0  0  0  0
   29.8771   -0.1304   27.9165 C   0  0  0  0  0  0
   28.4179   -0.2132   27.6234 C   0  0  0  0  0  0
   28.0798   -0.9793   26.5249 C   0  0  0  0  0  0
   26.7364   -1.1710   26.2456 C   0  0  0  0  0  0
   25.7496   -0.5840   27.0128 C   0  0  0  0  0  0
   24.4239   -0.8381   26.6565 O   0  0  0  0  0  0
   26.0881    0.1422   28.1356 C   0  0  0  0  0  0
   27.4376    0.3151   28.4175 C   0  0  0  0  0  0
   32.2101   -0.5845   27.8929 C   0  0  0  0  0  0
   30.8798   -1.0408   27.5214 C   0  0  0  0  0  0
   30.6634   -2.2382   26.8665 C   0  0  0  0  0  0
   29.6830   -2.9283   27.1730 O   0  0  0  0  0  0
   31.5594   -2.7456   25.8216 C   0  0  0  0  0  0
   31.9792   -1.9241   24.7947 C   0  0  0  0  0  0
   32.8105   -2.3743   23.7875 C   0  0  0  0  0  0
   33.2116   -3.7091   23.7972 C   0  0  0  0  0  0
   32.8037   -4.5396   24.8257 C   0  0  0  0  0  0
   31.9921   -4.0547   25.8376 C   0  0  0  0  0  0
   34.0099   -4.3738   22.9138 O   0  0  0  0  0  0
   33.8231   -4.0732   21.5392 C   0  0  0  0  0  0
   34.9002   -4.7209   20.7105 C   0  0  0  0  0  0
   34.8147   -5.8806   19.8437 N   0  0  0  0  0  0
   35.9037   -5.8122   18.8484 C   0  0  0  0  0  0
   36.0141   -7.0679   17.9602 C   0  0  0  0  0  0
   34.6961   -7.1727   17.1759 C   0  0  0  0  0  0
   33.6228   -7.4237   18.2795 C   0  0  0  0  0  0
   33.5490   -6.1449   19.1319 C   0  0  0  0  0  0
   36.5482    0.9080   28.6478 H   0  0  0  0  0  0
   24.2256   -1.1950   25.8131 H   0  0  0  0  0  0
  1  2  2  0  0  0
  1 16  1  0  0  0
  2  3  1  0  0  0
  3  4  1  0  0  0
  3  5  2  0  0  0
  4 35  1  0  0  0
  5  6  1  0  0  0
  6  7  1  0  0  0
  6 16  2  0  0  0
  7  8  1  0  0  0
  8  9  1  0  0  0
  8 17  2  0  0  0
  9 10  2  0  0  0
  9 15  1  0  0  0
 10 11  1  0  0  0
 11 12  2  0  0  0
 12 13  1  0  0  0
 12 14  1  0  0  0
 13 36  1  0  0  0
 14 15  2  0  0  0
 16 17  1  0  0  0
 17 18  1  0  0  0
 18 19  2  0  0  0
 18 20  1  0  0  0
 20 21  2  0  0  0
 20 25  1  0  0  0
 21 22  1  0  0  0
 22 23  2  0  0  0
 23 24  1  0  0  0
 23 26  1  0  0  0
 24 25  2  0  0  0
 26 27  1  0  0  0
 27 28  1  0  0  0
 28 29  1  0  0  0
 29 30  1  0  0  0
 29 34  1  0  0  0
 30 31  1  0  0  0
 31 32  1  0  0  0
 32 33  1  0  0  0
 33 34  1  0  0  0
M  END
>  <CHROM.0>
88.74490716,-60.56480275,-179.65836179

>  <CHROM.1>
31.00856957,146.96892994,-15.72339153,-38.30157033,-47.68905376,-40.28509541
171.60816532,105.77680205,156.83010606,31.76962126,-2.24809942,25.12556159
-2.02886102,-0.01551985,-2.19519228

>  <FORMUL>
      RAL    C28 H27 N1 O4 S1

>  <HET>
 RAL  A 600      34

>  <HETNAM>
     RAL RALOXIFENE

>  <Name>
RAL.pdb

>  <RI>
0

>  <Rbt.Current_Directory>
/home/malgorzata/Desktop/rDOCK_IFD/Wyniki/6b_estrogen_receptor

>  <Rbt.Executable>
rbdock ($Id: //depot/dev/client3/rdock/2013.1/src/exe/rbdock.cxx#4 $)

>  <Rbt.Library>
libRbt.so (2013.1, Build901 2013/11/27)

>  <Rbt.Parameter_File>
/home/malgorzata/Desktop/rDock_2013.1_src/data/scripts/soft_docking.prm

>  <Rbt.Receptor>
cavity.prm

>  <SCORE>
-30.3227

>  <SCORE.INTER>
-31.9037

>  <SCORE.INTER.CONST>
1

>  <SCORE.INTER.POLAR>
-2.20213

>  <SCORE.INTER.REPUL>
0.380546

>  <SCORE.INTER.ROT>
7

>  <SCORE.INTER.VDW>
-38.7192

>  <SCORE.INTER.norm>
-0.938344

>  <SCORE.INTRA>
1.96497

>  <SCORE.INTRA.DIHEDRAL>
5.70751

>  <SCORE.INTRA.DIHEDRAL.0>
18.358

>  <SCORE.INTRA.POLAR>
0

>  <SCORE.INTRA.POLAR.0>
0

>  <SCORE.INTRA.REPUL>
0

>  <SCORE.INTRA.REPUL.0>
0

>  <SCORE.INTRA.VDW>
0.823468

>  <SCORE.INTRA.VDW.0>
-1.94569

>  <SCORE.INTRA.norm>
0.0577932

>  <SCORE.RESTR>
0

>  <SCORE.RESTR.CAVITY>
0

>  <SCORE.RESTR.norm>
0

>  <SCORE.SYSTEM>
-0.383929

>  <SCORE.SYSTEM.CONST>
0

>  <SCORE.SYSTEM.DIHEDRAL>
0.804386

>  <SCORE.SYSTEM.VDW>
-0.786122

>  <SCORE.SYSTEM.norm>
-0.011292

>  <SCORE.heavy>
34

>  <SCORE.norm>
-0.891843

$$$$
RAL.pdb
  rDOCK(R)          3D
libRbt.so/2013.1/901 2013/11/27
 36 40  0  0  0  0  0  0  0  0999 V2000
   27.1243   -2.0495   26.1273 C   0  0  0  0  0  0
   25.7734   -1.8442   26.0137 C   0  0  0  0  0  0
   25.1694   -0.6895   26.4267 C   0  0  0  0  0  0
   23.8141   -0.5968   26.2299 O   0  0  0  0  0  0
   25.9514    0.3357   26.9709 C   0  0  0  0  0  0
   27.3082    0.1397   27.0511 C   0  0  0  0  0  0
   28.4770    1.1241   27.6803 S   0  0  0  0  0  0
   29.8102    0.1346   27.3751 C   0  0  0  0  0  0
   31.1976    0.4596   27.8125 C   0  0  0  0  0  0
   31.6601   -0.2658   28.8932 C   0  0  0  0  0  0
   32.9715   -0.0774   29.2986 C   0  0  0  0  0  0
   33.7948    0.8384   28.6737 C   0  0  0  0  0  0
   35.1018    0.9556   29.1499 O   0  0  0  0  0  0
   33.3459    1.5278   27.5665 C   0  0  0  0  0  0
   32.0345    1.3199   27.1568 C   0  0  0  0  0  0
   27.9086   -1.0805   26.6286 C   0  0  0  0  0  0
   29.3471   -1.0876   26.8438 C   0  0  0  0  0  0
   30.1361   -2.1811   26.5413 C   0  0  0  0  0  0
   30.1504   -3.1498   27.3111 O   0  0  0  0  0  0
   30.9805   -2.2446   25.3434 C   0  0  0  0  0  0
   31.7672   -3.3512   25.0949 C   0  0  0  0  0  0
   32.5846   -3.4364   23.9845 C   0  0  0  0  0  0
   32.6348   -2.3557   23.1057 C   0  0  0  0  0  0
   31.8446   -1.2447   23.3404 C   0  0  0  0  0  0
   31.0137   -1.1971   24.4473 C   0  0  0  0  0  0
   33.3666   -2.2082   21.9646 O   0  0  0  0  0  0
   33.1260   -3.1500   20.9302 C   0  0  0  0  0  0
   32.1915   -2.5708   19.9017 C   0  0  0  0  0  0
   31.9556   -2.9982   18.5361 N   0  0  0  0  0  0
   30.6539   -3.6932   18.4730 C   0  0  0  0  0  0
   30.2162   -4.0652   17.0420 C   0  0  0  0  0  0
   31.2717   -5.0401   16.4955 C   0  0  0  0  0  0
   32.5719   -4.1816   16.4222 C   0  0  0  0  0  0
   32.9669   -3.8421   17.8700 C   0  0  0  0  0  0
   23.3534   -1.2942   25.8065 H   0  0  0  0  0  0
   35.4107    1.7791   29.4730 H   0  0  0  0  0  0
  1  2  2  0  0  0
  1 16  1  0  0  0
  2  3  1  0  0  0
  3  4  1  0  0  0
  3  5  2  0  0  0
  4 35  1  0  0  0
  5  6  1  0  0  0
  6  7  1  0  0  0
  6 16  2  0  0  0
  7  8  1  0  0  0
  8  9  1  0  0  0
  8 17  2  0  0  0
  9 10  2  0  0  0
  9 15  1  0  0  0
 10 11  1  0  0  0
 11 12  2  0  0  0
 12 13  1  0  0  0
 12 14  1  0  0  0
 13 36  1  0  0  0
 14 15  2  0  0  0
 16 17  1  0  0  0
 17 18  1  0  0  0
 18 19  2  0  0  0
 18 20  1  0  0  0
 20 21  2  0  0  0
 20 25  1  0  0  0
 21 22  1  0  0  0
 22 23  2  0  0  0
 23 24  1  0  0  0
 23 26  1  0  0  0
 24 25  2  0  0  0
 26 27  1  0  0  0
 27 28  1  0  0  0
 28 29  1  0  0  0
 29 30  1  0  0  0
 29 34  1  0  0  0
 30 31  1  0  0  0
 31 32  1  0  0  0
 32 33  1  0  0  0
 33 34  1  0  0  0
M  END
>  <CHROM.0>
63.39306198,-60.56480275,-157.18883074

>  <CHROM.1>
-1.82732259,104.95566882,-120.78272194,102.67269516,179.00241532,60.37355273
98.55305590,161.51464999,105.14219706,30.54274892,-1.45386580,24.52380074
1.80285165,0.03875107,1.17515947

>  <FORMUL>
      RAL    C28 H27 N1 O4 S1

>  <HET>
 RAL  A 600      34

>  <HETNAM>
     RAL RALOXIFENE

>  <Name>
RAL.pdb

>  <RI>
0

>  <Rbt.Current_Directory>
/home/malgorzata/Desktop/rDOCK_IFD/Wyniki/6b_estrogen_receptor

>  <Rbt.Executable>
rbdock ($Id: //depot/dev/client3/rdock/2013.1/src/exe/rbdock.cxx#4 $)

>  <Rbt.Library>
libRbt.so (2013.1, Build901 2013/11/27)

>  <Rbt.Parameter_File>
/home/malgorzata/Desktop/rDock_2013.1_src/data/scripts/soft_docking.prm

>  <Rbt.Receptor>
cavity.prm

>  <SCORE>
-34.7409

>  <SCORE.INTER>
-37.0448

>  <SCORE.INTER.CONST>
1

>  <SCORE.INTER.POLAR>
-1.62013

>  <SCORE.INTER.REPUL>
0.0154587

>  <SCORE.INTER.ROT>
7

>  <SCORE.INTER.VDW>
-44.0136

>  <SCORE.INTER.norm>
-1.08955

>  <SCORE.INTRA>
2.68739

>  <SCORE.INTRA.DIHEDRAL>
19.7012

>  <SCORE.INTRA.DIHEDRAL.0>
18.358

>  <SCORE.INTRA.POLAR>
0

>  <SCORE.INTRA.POLAR.0>
0

>  <SCORE.INTRA.REPUL>
0

>  <SCORE.INTRA.REPUL.0>
0

>  <SCORE.INTRA.VDW>
-1.25285

>  <SCORE.INTRA.VDW.0>
-1.94569

>  <SCORE.INTRA.norm>
0.0790409

>  <SCORE.RESTR>
0

>  <SCORE.RESTR.CAVITY>
0

>  <SCORE.RESTR.norm>
0

>  <SCORE.SYSTEM>
-0.383476

>  <SCORE.SYSTEM.CONST>
0

>  <SCORE.SYSTEM.DIHEDRAL>
0.802053

>  <SCORE.SYSTEM.VDW>
-0.784502

>  <SCORE.SYSTEM.norm>
-0.0112787

>  <SCORE.heavy>
34

>  <SCORE.norm>
-1.02179

$$$$
RAL.pdb
  rDOCK(R)          3D
libRbt.so/2013.1/901 2013/11/27
 36 40  0  0  0  0  0  0  0  0999 V2000
   33.2409   -0.2081   27.2252 C   0  0  0  0  0  0
   34.3183    0.2799   27.9186 C   0  0  0  0  0  0
   34.4010    0.2217   29.2819 C   0  0  0  0  0  0
   35.5460    0.7185   29.8530 O   0  0  0  0  0  0
   33.3612   -0.3723   30.0063 C   0  0  0  0  0  0
   32.3000   -0.8906   29.3058 C   0  0  0  0  0  0
   30.9161   -1.5992   29.8660 S   0  0  0  0  0  0
   30.1961   -1.9256   28.3745 C   0  0  0  0  0  0
   28.8322   -2.5081   28.2253 C   0  0  0  0  0  0
   27.7926   -1.6777   28.5966 C   0  0  0  0  0  0
   26.4948   -2.1223   28.4025 C   0  0  0  0  0  0
   26.2317   -3.3773   27.8899 C   0  0  0  0  0  0
   24.8923   -3.7355   27.7265 O   0  0  0  0  0  0
   27.2699   -4.1863   27.4771 C   0  0  0  0  0  0
   28.5678   -3.7252   27.6601 C   0  0  0  0  0  0
   32.2323   -0.8009   27.8861 C   0  0  0  0  0  0
   31.0043   -1.3743   27.3579 C   0  0  0  0  0  0
   30.7045   -1.3688   26.0090 C   0  0  0  0  0  0
   29.8051   -0.6288   25.5909 O   0  0  0  0  0  0
   31.3996   -2.2198   25.0371 C   0  0  0  0  0  0
   31.4868   -1.8470   23.7109 C   0  0  0  0  0  0
   32.1211   -2.6322   22.7678 C   0  0  0  0  0  0
   32.6629   -3.8525   23.1677 C   0  0  0  0  0  0
   32.5885   -4.2328   24.4958 C   0  0  0  0  0  0
   31.9705   -3.4134   25.4255 C   0  0  0  0  0  0
   33.3167   -4.7889   22.4226 O   0  0  0  0  0  0
   32.7326   -5.1272   21.1739 C   0  0  0  0  0  0
   33.4695   -6.2804   20.5465 C   0  0  0  0  0  0
   33.7603   -6.5278   19.1473 N   0  0  0  0  0  0
   34.8851   -7.4806   19.0562 C   0  0  0  0  0  0
   35.1934   -7.9430   17.6178 C   0  0  0  0  0  0
   35.6028   -6.6893   16.8279 C   0  0  0  0  0  0
   34.3103   -5.8164   16.8150 C   0  0  0  0  0  0
   34.0503   -5.3791   18.2671 C   0  0  0  0  0  0
   36.0735    0.1694   30.3991 H   0  0  0  0  0  0
   24.4556   -4.2315   28.3908 H   0  0  0  0  0  0
  1  2  2  0  0  0
  1 16  1  0  0  0
  2  3  1  0  0  0
  3  4  1  0  0  0
  3  5  2  0  0  0
  4 35  1  0  0  0
  5  6  1  0  0  0
  6  7  1  0  0  0
  6 16  2  0  0  0
  7  8  1  0  0  0
  8  9  1  0  0  0
  8 17  2  0  0  0
  9 10  2  0  0  0
  9 15  1  0  0  0
 10 11  1  0  0  0
 11 12  2  0  0  0
 12 13  1  0  0  0
 12 14  1  0  0  0
 13 36  1  0  0  0
 14 15  2  0  0  0
 16 17  1  0  0  0
 17 18  1  0  0  0
 18 19  2  0  0  0
 18 20  1  0  0  0
 20 21  2  0  0  0
 20 25  1  0  0  0
 21 22  1  0  0  0
 22 23  2  0  0  0
 23 24  1  0  0  0
 23 26  1  0  0  0
 24 25  2  0  0  0
 26 27  1  0  0  0
 27 28  1  0  0  0
 28 29  1  0  0  0
 29 30  1  0  0  0
 29 34  1  0  0  0
 30 31  1  0  0  0
 31 32  1  0  0  0
 32 33  1  0  0  0
 33 34  1  0  0  0
M  END
>  <CHROM.0>
-24.54690903,-60.56480275,-121.43282307

>  <CHROM.1>
-122.47169506,69.04365207,-95.74871716,71.63040980,-153.83787925,-45.58816891
-173.28831752,-143.85523592,159.80119076,31.69638119,-3.04183738,25.12537423
-1.93712638,-0.27891402,-2.12479711

>  <FORMUL>
      RAL    C28 H27 N1 O4 S1

>  <HET>
 RAL  A 600      34

>  <HETNAM>
     RAL RALOXIFENE

>  <Name>
RAL.pdb

>  <RI>
0

>  <Rbt.Current_Directory>
/home/malgorzata/Desktop/rDOCK_IFD/Wyniki/6b_estrogen_receptor

>  <Rbt.Executable>
rbdock ($Id: //depot/dev/client3/rdock/2013.1/src/exe/rbdock.cxx#4 $)

>  <Rbt.Library>
libRbt.so (2013.1, Build901 2013/11/27)

>  <Rbt.Parameter_File>
/home/malgorzata/Desktop/rDock_2013.1_src/data/scripts/soft_docking.prm

>  <Rbt.Receptor>
cavity.prm

>  <SCORE>
-30.3836

>  <SCORE.INTER>
-32.841

>  <SCORE.INTER.CONST>
1

>  <SCORE.INTER.POLAR>
-2.4404

>  <SCORE.INTER.REPUL>
0.19613

>  <SCORE.INTER.ROT>
7

>  <SCORE.INTER.VDW>
-37.9243

>  <SCORE.INTER.norm>
-0.965911

>  <SCORE.INTRA>
2.65875

>  <SCORE.INTRA.DIHEDRAL>
21.0102

>  <SCORE.INTRA.DIHEDRAL.0>
18.358

>  <SCORE.INTRA.POLAR>
0

>  <SCORE.INTRA.POLAR.0>
0

>  <SCORE.INTRA.REPUL>
0

>  <SCORE.INTRA.REPUL.0>
0

>  <SCORE.INTRA.VDW>
-1.5433

>  <SCORE.INTRA.VDW.0>
-1.94569

>  <SCORE.INTRA.norm>
0.0781986

>  <SCORE.RESTR>
0.298358

>  <SCORE.RESTR.CAVITY>
0.298358

>  <SCORE.RESTR.norm>
0.00877522

>  <SCORE.SYSTEM>
-0.499691

>  <SCORE.SYSTEM.CONST>
0

>  <SCORE.SYSTEM.DIHEDRAL>
0.804272

>  <SCORE.SYSTEM.VDW>
-0.901827

>  <SCORE.SYSTEM.norm>
-0.0146968

>  <SCORE.heavy>
34

>  <SCORE.norm>
-0.893634

$$$$
RAL.pdb
  rDOCK(R)          3D
libRbt.so/2013.1/901 2013/11/27
 36 40  0  0  0  0  0  0  0  0999 V2000
   26.5398   -1.4915   26.8603 C   0  0  0  0  0  0
   25.3178   -1.0246   27.2710 C   0  0  0  0  0  0
   25.1815    0.0984   28.0384 C   0  0  0  0  0  0
   23.9013    0.4769   28.3575 O   0  0  0  0  0  0
   26.3238    0.8168   28.4099 C   0  0  0  0  0  0
   27.5429    0.3652   27.9677 C   0  0  0  0  0  0
   29.0561    0.9554   28.2726 S   0  0  0  0  0  0
   29.9350   -0.1657   27.3669 C   0  0  0  0  0  0
   31.4243   -0.2038   27.3195 C   0  0  0  0  0  0
   31.9921   -1.4296   27.6077 C   0  0  0  0  0  0
   33.3671   -1.5594   27.4973 C   0  0  0  0  0  0
   34.1666   -0.4887   27.1487 C   0  0  0  0  0  0
   35.5409   -0.7170   27.0590 O   0  0  0  0  0  0
   33.5941    0.7215   26.8167 C   0  0  0  0  0  0
   32.2128    0.8375   26.9140 C   0  0  0  0  0  0
   27.6567   -0.8177   27.1831 C   0  0  0  0  0  0
   29.0401   -1.1335   26.8637 C   0  0  0  0  0  0
   29.3959   -2.2561   26.1407 C   0  0  0  0  0  0
   28.8143   -3.3265   26.3579 O   0  0  0  0  0  0
   30.4540   -2.2444   25.1246 C   0  0  0  0  0  0
   30.8273   -1.0655   24.5110 C   0  0  0  0  0  0
   31.8091   -1.0222   23.5402 C   0  0  0  0  0  0
   32.4186   -2.2137   23.1508 C   0  0  0  0  0  0
   32.0582   -3.4000   23.7646 C   0  0  0  0  0  0
   31.0897   -3.4106   24.7544 C   0  0  0  0  0  0
   33.3913   -2.4172   22.2172 O   0  0  0  0  0  0
   32.9631   -2.5280   20.8684 C   0  0  0  0  0  0
   33.7594   -1.6016   19.9885 C   0  0  0  0  0  0
   35.0196   -1.8409   19.3117 N   0  0  0  0  0  0
   36.0366   -2.2119   20.3163 C   0  0  0  0  0  0
   37.3865   -2.6397   19.7061 C   0  0  0  0  0  0
   37.9333   -1.4222   18.9434 C   0  0  0  0  0  0
   36.9016   -1.2065   17.7937 C   0  0  0  0  0  0
   35.5789   -0.7786   18.4531 C   0  0  0  0  0  0
   23.2214    0.4174   27.7155 H   0  0  0  0  0  0
   36.0498   -0.8251   27.8384 H   0  0  0  0  0  0
  1  2  2  0  0  0
  1 16  1  0  0  0
  2  3  1  0  0  0
  3  4  1  0  0  0
  3  5  2  0  0  0
  4 35  1  0  0  0
  5  6  1  0  0  0
  6  7  1  0  0  0
  6 16  2  0  0  0
  7  8  1  0  0  0
  8  9  1  0  0  0
  8 17  2  0  0  0
  9 10  2  0  0  0
  9 15  1  0  0  0
 10 11  1  0  0  0
 11 12  2  0  0  0
 12 13  1  0  0  0
 12 14  1  0  0  0
 13 36  1  0  0  0
 14 15  2  0  0  0
 16 17  1  0  0  0
 17 18  1  0  0  0
 18 19  2  0  0  0
 18 20  1  0  0  0
 20 21  2  0  0  0
 20 25  1  0  0  0
 21 22  1  0  0  0
 22 23  2  0  0  0
 23 24  1  0  0  0
 23 26  1  0  0  0
 24 25  2  0  0  0
 26 27  1  0  0  0
 27 28  1  0  0  0
 28 29  1  0  0  0
 29 30  1  0  0  0
 29 34  1  0  0  0
 30 31  1  0  0  0
 31 32  1  0  0  0
 32 33  1  0  0  0
 33 34  1  0  0  0
M  END
>  <CHROM.0>
158.85794864,-60.56480275,112.76803558

>  <CHROM.1>
-40.34214218,127.17588570,-73.78347966,140.08854394,-22.61618731,-83.23619706
129.20900162,88.01718456,-57.81693696,31.41045177,-1.12013737,24.81632973
2.39406059,0.08017339,1.28895159

>  <FORMUL>
      RAL    C28 H27 N1 O4 S1

>  <HET>
 RAL  A 600      34

>  <HETNAM>
     RAL RALOXIFENE

>  <Name>
RAL.pdb

>  <RI>
0

>  <Rbt.Current_Directory>
/home/malgorzata/Desktop/rDOCK_IFD/Wyniki/6b_estrogen_receptor

>  <Rbt.Executable>
rbdock ($Id: //depot/dev/client3/rdock/2013.1/src/exe/rbdock.cxx#4 $)

>  <Rbt.Library>
libRbt.so (2013.1, Build901 2013/11/27)

>  <Rbt.Parameter_File>
/home/malgorzata/Desktop/rDock_2013.1_src/data/scripts/soft_docking.prm

>  <Rbt.Receptor>
cavity.prm

>  <SCORE>
-28.7374

>  <SCORE.INTER>
-29.5446

>  <SCORE.INTER.CONST>
1

>  <SCORE.INTER.POLAR>
-1.50204

>  <SCORE.INTER.REPUL>
0.0138678

>  <SCORE.INTER.ROT>
7

>  <SCORE.INTER.VDW>
-36.907

>  <SCORE.INTER.norm>
-0.868958

>  <SCORE.INTRA>
1.36484

>  <SCORE.INTRA.DIHEDRAL>
16.0967

>  <SCORE.INTRA.DIHEDRAL.0>
18.358

>  <SCORE.INTRA.POLAR>
0

>  <SCORE.INTRA.POLAR.0>
0

>  <SCORE.INTRA.REPUL>
0

>  <SCORE.INTRA.REPUL.0>
0

>  <SCORE.INTRA.VDW>
-1.85449

>  <SCORE.INTRA.VDW.0>
-1.94569

>  <SCORE.INTRA.norm>
0.0401424

>  <SCORE.RESTR>
0

>  <SCORE.RESTR.CAVITY>
0

>  <SCORE.RESTR.norm>
0

>  <SCORE.SYSTEM>
-0.557706

>  <SCORE.SYSTEM.CONST>
0

>  <SCORE.SYSTEM.DIHEDRAL>
0.803372

>  <SCORE.SYSTEM.VDW>
-0.959392

>  <SCORE.SYSTEM.norm>
-0.0164031

>  <SCORE.heavy>
34

>  <SCORE.norm>
-0.845219

$$$$
RAL.pdb
  rDOCK(R)          3D
libRbt.so/2013.1/901 2013/11/27
 36 40  0  0  0  0  0  0  0  0999 V2000
   28.3783   -2.6092   27.3339 C   0  0  0  0  0  0
   27.1037   -2.5223   27.8317 C   0  0  0  0  0  0
   26.7279   -1.5552   28.7217 C   0  0  0  0  0  0
   25.4146   -1.5595   29.1207 O   0  0  0  0  0  0
   27.6661   -0.6017   29.1336 C   0  0  0  0  0  0
   28.9320   -0.6716   28.6063 C   0  0  0  0  0  0
   30.2570    0.2628   28.9261 S   0  0  0  0  0  0
   31.3402   -0.4938   27.8755 C   0  0  0  0  0  0
   32.7835   -0.1344   27.7773 C   0  0  0  0  0  0
   33.3237    0.4500   28.9063 C   0  0  0  0  0  0
   34.6805    0.7302   28.9162 C   0  0  0  0  0  0
   35.4774    0.4751   27.8177 C   0  0  0  0  0  0
   36.8340    0.7876   27.9229 O   0  0  0  0  0  0
   34.9458   -0.1503   26.7091 C   0  0  0  0  0  0
   33.5875   -0.4430   26.7147 C   0  0  0  0  0  0
   29.3005   -1.7005   27.6933 C   0  0  0  0  0  0
   30.6972   -1.6088   27.2977 C   0  0  0  0  0  0
   31.2872   -2.5222   26.4449 C   0  0  0  0  0  0
   31.9726   -3.4377   26.9173 O   0  0  0  0  0  0
   31.1510   -2.4500   24.9860 C   0  0  0  0  0  0
   30.9750   -1.2350   24.3549 C   0  0  0  0  0  0
   30.8288   -1.1338   22.9850 C   0  0  0  0  0  0
   30.8305   -2.3011   22.2235 C   0  0  0  0  0  0
   31.0143   -3.5237   22.8443 C   0  0  0  0  0  0
   31.1856   -3.5938   24.2167 C   0  0  0  0  0  0
   30.6927   -2.4486   20.8749 O   0  0  0  0  0  0
   29.3655   -2.4806   20.3724 C   0  0  0  0  0  0
   29.3761   -2.5050   18.8672 C   0  0  0  0  0  0
   30.4791   -2.7724   17.9642 N   0  0  0  0  0  0
   31.1983   -3.9738   18.4340 C   0  0  0  0  0  0
   32.3044   -4.4522   17.4720 C   0  0  0  0  0  0
   33.3372   -3.3170   17.3852 C   0  0  0  0  0  0
   32.5523   -2.1473   16.7154 C   0  0  0  0  0  0
   31.4679   -1.7057   17.7137 C   0  0  0  0  0  0
   25.1850   -1.2652   29.9801 H   0  0  0  0  0  0
   37.3053    1.0881   27.1708 H   0  0  0  0  0  0
  1  2  2  0  0  0
  1 16  1  0  0  0
  2  3  1  0  0  0
  3  4  1  0  0  0
  3  5  2  0  0  0
  4 35  1  0  0  0
  5  6  1  0  0  0
  6  7  1  0  0  0
  6 16  2  0  0  0
  7  8  1  0  0  0
  8  9  1  0  0  0
  8 17  2  0  0  0
  9 10  2  0  0  0
  9 15  1  0  0  0
 10 11  1  0  0  0
 11 12  2  0  0  0
 12 13  1  0  0  0
 12 14  1  0  0  0
 13 36  1  0  0  0
 14 15  2  0  0  0
 16 17  1  0  0  0
 17 18  1  0  0  0
 18 19  2  0  0  0
 18 20  1  0  0  0
 20 21  2  0  0  0
 20 25  1  0  0  0
 21 22  1  0  0  0
 22 23  2  0  0  0
 23 24  1  0  0  0
 23 26  1  0  0  0
 24 25  2  0  0  0
 26 27  1  0  0  0
 27 28  1  0  0  0
 28 29  1  0  0  0
 29 30  1  0  0  0
 29 34  1  0  0  0
 30 31  1  0  0  0
 31 32  1  0  0  0
 32 33  1  0  0  0
 33 34  1  0  0  0
M  END
>  <CHROM.0>
-82.05323039,-60.56480275,-86.74603573

>  <CHROM.1>
148.83265075,24.68995364,-146.27915423,81.20366866,29.38285973,-84.13439599
174.21172570,14.00471382,46.59332839,31.07984637,-1.63011382,24.71741486
1.63918226,0.24758302,1.32448698

>  <FORMUL>
      RAL    C28 H27 N1 O4 S1

>  <HET>
 RAL  A 600      34

>  <HETNAM>
     RAL RALOXIFENE

>  <Name>
RAL.pdb

>  <RI>
0

>  <Rbt.Current_Directory>
/home/malgorzata/Desktop/rDOCK_IFD/Wyniki/6b_estrogen_receptor

>  <Rbt.Executable>
rbdock ($Id: //depot/dev/client3/rdock/2013.1/src/exe/rbdock.cxx#4 $)

>  <Rbt.Library>
libRbt.so (2013.1, Build901 2013/11/27)

>  <Rbt.Parameter_File>
/home/malgorzata/Desktop/rDock_2013.1_src/data/scripts/soft_docking.prm

>  <Rbt.Receptor>
cavity.prm

>  <SCORE>
-33.6509

>  <SCORE.INTER>
-34.1145

>  <SCORE.INTER.CONST>
1

>  <SCORE.INTER.POLAR>
-1.04645

>  <SCORE.INTER.REPUL>
0.0383854

>  <SCORE.INTER.ROT>
7

>  <SCORE.INTER.VDW>
-43.1485

>  <SCORE.INTER.norm>
-1.00337

>  <SCORE.INTRA>
1.33042

>  <SCORE.INTRA.DIHEDRAL>
11.8515

>  <SCORE.INTRA.DIHEDRAL.0>
18.358

>  <SCORE.INTRA.POLAR>
0

>  <SCORE.INTRA.POLAR.0>
0

>  <SCORE.INTRA.REPUL>
0

>  <SCORE.INTRA.REPUL.0>
0

>  <SCORE.INTRA.VDW>
-1.03988

>  <SCORE.INTRA.VDW.0>
-1.94569

>  <SCORE.INTRA.norm>
0.03913

>  <SCORE.RESTR>
0

>  <SCORE.RESTR.CAVITY>
0

>  <SCORE.RESTR.norm>
0

>  <SCORE.SYSTEM>
-0.866906

>  <SCORE.SYSTEM.CONST>
0

>  <SCORE.SYSTEM.DIHEDRAL>
0.806726

>  <SCORE.SYSTEM.VDW>
-1.27027

>  <SCORE.SYSTEM.norm>
-0.0254972

>  <SCORE.heavy>
34

>  <SCORE.norm>
-0.989734

$$$$
RAL.pdb
  rDOCK(R)          3D
libRbt.so/2013.1/901 2013/11/27
 36 40  0  0  0  0  0  0  0  0999 V2000
   33.1159   -1.2599   27.6930 C   0  0  0  0  0  0
   34.2963   -0.7774   28.1967 C   0  0  0  0  0  0
   34.3553    0.3322   28.9929 C   0  0  0  0  0  0
   35.5954    0.6945   29.4567 O   0  0  0  0  0  0
   33.1710    0.9985   29.3279 C   0  0  0  0  0  0
   31.9876    0.4920   28.8497 C   0  0  0  0  0  0
   30.4495    1.0707   29.0244 S   0  0  0  0  0  0
   29.6446   -0.1262   28.1474 C   0  0  0  0  0  0
   28.1807   -0.1019   27.8676 C   0  0  0  0  0  0
   27.5261   -1.3048   28.0476 C   0  0  0  0  0  0
   26.1500   -1.3343   27.8897 C   0  0  0  0  0  0
   25.4421   -0.2070   27.5220 C   0  0  0  0  0  0
   24.0580   -0.3331   27.3911 O   0  0  0  0  0  0
   26.0911    1.0028   27.3879 C   0  0  0  0  0  0
   27.4691    1.0262   27.5647 C   0  0  0  0  0  0
   31.9574   -0.6564   28.0081 C   0  0  0  0  0  0
   30.6068   -0.9908   27.5842 C   0  0  0  0  0  0
   30.3371   -2.0467   26.7346 C   0  0  0  0  0  0
   29.6418   -2.9873   27.1385 O   0  0  0  0  0  0
   30.8540   -2.1153   25.3634 C   0  0  0  0  0  0
   30.2123   -1.4540   24.3357 C   0  0  0  0  0  0
   30.6642   -1.5102   23.0314 C   0  0  0  0  0  0
   31.7872   -2.2843   22.7449 C   0  0  0  0  0  0
   32.4431   -2.9450   23.7683 C   0  0  0  0  0  0
   31.9841   -2.8493   25.0713 C   0  0  0  0  0  0
   32.4019   -2.4978   21.5465 O   0  0  0  0  0  0
   32.0864   -3.7098   20.8785 C   0  0  0  0  0  0
   33.3461   -4.4382   20.4924 C   0  0  0  0  0  0
   34.4196   -4.0085   19.6170 N   0  0  0  0  0  0
   35.4196   -5.0912   19.5233 C   0  0  0  0  0  0
   36.5398   -4.8164   18.4998 C   0  0  0  0  0  0
   37.2829   -3.5606   18.9834 C   0  0  0  0  0  0
   36.2132   -2.4301   18.8818 C   0  0  0  0  0  0
   35.1248   -2.7482   19.9219 C   0  0  0  0  0  0
   36.0539    1.4086   29.0596 H   0  0  0  0  0  0
   23.5517    0.3818   27.0584 H   0  0  0  0  0  0
  1  2  2  0  0  0
  1 16  1  0  0  0
  2  3  1  0  0  0
  3  4  1  0  0  0
  3  5  2  0  0  0
  4 35  1  0  0  0
  5  6  1  0  0  0
  6  7  1  0  0  0
  6 16  2  0  0  0
  7  8  1  0  0  0
  8  9  1  0  0  0
  8 17  2  0  0  0
  9 10  2  0  0  0
  9 15  1  0  0  0
 10 11  1  0  0  0
 11 12  2  0  0  0
 12 13  1  0  0  0
 12 14  1  0  0  0
 13 36  1  0  0  0
 14 15  2  0  0  0
 16 17  1  0  0  0
 17 18  1  0  0  0
 18 19  2  0  0  0
 18 20  1  0  0  0
 20 21  2  0  0  0
 20 25  1  0  0  0
 21 22  1  0  0  0
 22 23  2  0  0  0
 23 24  1  0  0  0
 23 26  1  0  0  0
 24 25  2  0  0  0
 26 27  1  0  0  0
 27 28  1  0  0  0
 28 29  1  0  0  0
 29 30  1  0  0  0
 29 34  1  0  0  0
 30 31  1  0  0  0
 31 32  1  0  0  0
 32 33  1  0  0  0
 33 34  1  0  0  0
M  END
>  <CHROM.0>
-102.87220621,-60.56480275,8.01821657

>  <CHROM.1>
102.53881749,-135.75549239,-173.67497214,-62.10424700,-82.55653767,-99.10827728
-128.56324659,-60.99033318,-178.40368196,31.50082596,-1.49046787,25.22226352
-2.18472477,-0.02029679,-2.00224591

>  <FORMUL>
      RAL    C28 H27 N1 O4 S1

>  <HET>
 RAL  A 600      34

>  <HETNAM>
     RAL RALOXIFENE

>  <Name>
RAL.pdb

>  <RI>
0

>  <Rbt.Current_Directory>
/home/malgorzata/Desktop/rDOCK_IFD/Wyniki/6b_estrogen_receptor

>  <Rbt.Executable>
rbdock ($Id: //depot/dev/client3/rdock/2013.1/src/exe/rbdock.cxx#4 $)

>  <Rbt.Library>
libRbt.so (2013.1, Build901 2013/11/27)

>  <Rbt.Parameter_File>
/home/malgorzata/Desktop/rDock_2013.1_src/data/scripts/soft_docking.prm

>  <Rbt.Receptor>
cavity.prm

>  <SCORE>
-32.6214

>  <SCORE.INTER>
-34.8683

>  <SCORE.INTER.CONST>
1

>  <SCORE.INTER.POLAR>
-2.06996

>  <SCORE.INTER.REPUL>
0.200673

>  <SCORE.INTER.ROT>
7

>  <SCORE.INTER.VDW>
-41.2338

>  <SCORE.INTER.norm>
-1.02554

>  <SCORE.INTRA>
3.30508

>  <SCORE.INTRA.DIHEDRAL>
26.1182

>  <SCORE.INTRA.DIHEDRAL.0>
18.358

>  <SCORE.INTRA.POLAR>
0

>  <SCORE.INTRA.POLAR.0>
0

>  <SCORE.INTRA.REPUL>
0

>  <SCORE.INTRA.REPUL.0>
0

>  <SCORE.INTRA.VDW>
-1.91856

>  <SCORE.INTRA.VDW.0>
-1.94569

>  <SCORE.INTRA.norm>
0.0972083

>  <SCORE.RESTR>
0

>  <SCORE.RESTR.CAVITY>
0

>  <SCORE.RESTR.norm>
0

>  <SCORE.SYSTEM>
-1.05826

>  <SCORE.SYSTEM.CONST>
0

>  <SCORE.SYSTEM.DIHEDRAL>
0.805316

>  <SCORE.SYSTEM.VDW>
-1.46092

>  <SCORE.SYSTEM.norm>
-0.0311253

>  <SCORE.heavy>
34

>  <SCORE.norm>
-0.959454

$$$$
RAL.pdb
  rDOCK(R)          3D
libRbt.so/2013.1/901 2013/11/27
 36 40  0  0  0  0  0  0  0  0999 V2000
   28.4738   -1.3087   27.2541 C   0  0  0  0  0  0
   27.1255   -1.0759   27.1651 C   0  0  0  0  0  0
   26.5967    0.1847   27.1684 C   0  0  0  0  0  0
   25.2334    0.2829   27.0435 O   0  0  0  0  0  0
   27.4552    1.2872   27.2471 C   0  0  0  0  0  0
   28.8068    1.0507   27.3014 C   0  0  0  0  0  0
   30.0564    2.1223   27.4477 S   0  0  0  0  0  0
   31.3258    1.0096   27.4349 C   0  0  0  0  0  0
   32.7553    1.3849   27.6289 C   0  0  0  0  0  0
   33.6080    0.3345   27.9074 C   0  0  0  0  0  0
   34.9638    0.5989   28.0134 C   0  0  0  0  0  0
   35.4604    1.8813   27.8868 C   0  0  0  0  0  0
   36.8413    2.0490   28.0052 O   0  0  0  0  0  0
   34.6136    2.9209   27.5632 C   0  0  0  0  0  0
   33.2575    2.6433   27.4422 C   0  0  0  0  0  0
   29.3291   -0.2741   27.3132 C   0  0  0  0  0  0
   30.7797   -0.2912   27.4185 C   0  0  0  0  0  0
   31.5040   -1.4662   27.4829 C   0  0  0  0  0  0
   31.8856   -1.8836   28.5835 O   0  0  0  0  0  0
   31.8604   -2.2462   26.2926 C   0  0  0  0  0  0
   31.6686   -1.7272   25.0279 C   0  0  0  0  0  0
   31.9796   -2.4408   23.8867 C   0  0  0  0  0  0
   32.4751   -3.7366   24.0217 C   0  0  0  0  0  0
   32.6789   -4.2640   25.2843 C   0  0  0  0  0  0
   32.3839   -3.5162   26.4119 C   0  0  0  0  0  0
   32.8366   -4.6246   23.0521 O   0  0  0  0  0  0
   34.2013   -4.6172   22.6616 C   0  0  0  0  0  0
   34.4452   -3.5467   21.6315 C   0  0  0  0  0  0
   35.5780   -3.3736   20.7424 N   0  0  0  0  0  0
   36.5547   -4.4509   21.0007 C   0  0  0  0  0  0
   37.7387   -4.4667   20.0130 C   0  0  0  0  0  0
   38.4833   -3.1340   20.1930 C   0  0  0  0  0  0
   37.4495   -2.0620   19.7297 C   0  0  0  0  0  0
   36.2952   -2.0836   20.7469 C   0  0  0  0  0  0
   24.7583   -0.3694   26.5673 H   0  0  0  0  0  0
   37.3962    1.3020   28.1153 H   0  0  0  0  0  0
  1  2  2  0  0  0
  1 16  1  0  0  0
  2  3  1  0  0  0
  3  4  1  0  0  0
  3  5  2  0  0  0
  4 35  1  0  0  0
  5  6  1  0  0  0
  6  7  1  0  0  0
  6 16  2  0  0  0
  7  8  1  0  0  0
  8  9  1  0  0  0
  8 17  2  0  0  0
  9 10  2  0  0  0
  9 15  1  0  0  0
 10 11  1  0  0  0
 11 12  2  0  0  0
 12 13  1  0  0  0
 12 14  1  0  0  0
 13 36  1  0  0  0
 14 15  2  0  0  0
 16 17  1  0  0  0
 17 18  1  0  0  0
 18 19  2  0  0  0
 18 20  1  0  0  0
 20 21  2  0  0  0
 20 25  1  0  0  0
 21 22  1  0  0  0
 22 23  2  0  0  0
 23 24  1  0  0  0
 23 26  1  0  0  0
 24 25  2  0  0  0
 26 27  1  0  0  0
 27 28  1  0  0  0
 28 29  1  0  0  0
 29 30  1  0  0  0
 29 34  1  0  0  0
 30 31  1  0  0  0
 31 32  1  0  0  0
 32 33  1  0  0  0
 33 34  1  0  0  0
M  END
>  <CHROM.0>
52.40131566,-60.56480275,-120.30848631

>  <CHROM.1>
-29.65323631,165.08005105,3.49925047,81.63848540,10.43115423,92.32946844
-83.90349517,-164.41803744,-0.83311628,32.51762267,-1.06024984,25.42228992
2.35048994,0.23090089,0.77492054

>  <FORMUL>
      RAL    C28 H27 N1 O4 S1

>  <HET>
 RAL  A 600      34

>  <HETNAM>
     RAL RALOXIFENE

>  <Name>
RAL.pdb

>  <RI>
0

>  <Rbt.Current_Directory>
/home/malgorzata/Desktop/rDOCK_IFD/Wyniki/6b_estrogen_receptor

>  <Rbt.Executable>
rbdock ($Id: //depot/dev/client3/rdock/2013.1/src/exe/rbdock.cxx#4 $)

>  <Rbt.Library>
libRbt.so (2013.1, Build901 2013/11/27)

>  <Rbt.Parameter_File>
/home/malgorzata/Desktop/rDock_2013.1_src/data/scripts/soft_docking.prm

>  <Rbt.Receptor>
cavity.prm

>  <SCORE>
-28.2928

>  <SCORE.INTER>
-30.9213

>  <SCORE.INTER.CONST>
1

>  <SCORE.INTER.POLAR>
-0.27028

>  <SCORE.INTER.REPUL>
0.179295

>  <SCORE.INTER.ROT>
7

>  <SCORE.INTER.VDW>
-43.2989

>  <SCORE.INTER.norm>
-0.909451

>  <SCORE.INTRA>
3.07039

>  <SCORE.INTRA.DIHEDRAL>
5.80832

>  <SCORE.INTRA.DIHEDRAL.0>
18.358

>  <SCORE.INTRA.POLAR>
0

>  <SCORE.INTRA.POLAR.0>
0

>  <SCORE.INTRA.REPUL>
0

>  <SCORE.INTRA.REPUL.0>
0

>  <SCORE.INTRA.VDW>
1.90873

>  <SCORE.INTRA.VDW.0>
-1.94569

>  <SCORE.INTRA.norm>
0.0903057

>  <SCORE.RESTR>
0

>  <SCORE.RESTR.CAVITY>
0

>  <SCORE.RESTR.norm>
0

>  <SCORE.SYSTEM>
-0.441814

>  <SCORE.SYSTEM.CONST>
0

>  <SCORE.SYSTEM.DIHEDRAL>
0.804298

>  <SCORE.SYSTEM.VDW>
-0.843963

>  <SCORE.SYSTEM.norm>
-0.0129945

>  <SCORE.heavy>
34

>  <SCORE.norm>
-0.83214

$$$$
RAL.pdb
  rDOCK(R)          3D
libRbt.so/2013.1/901 2013/11/27
 36 40  0  0  0  0  0  0  0  0999 V2000
   34.7427   -0.5060   27.1733 C   0  0  0  0  0  0
   35.9089    0.2078   27.2748 C   0  0  0  0  0  0
   35.9463    1.4882   27.7522 C   0  0  0  0  0  0
   37.1812    2.0821   27.8313 O   0  0  0  0  0  0
   34.7584    2.0972   28.1727 C   0  0  0  0  0  0
   33.5979    1.3668   28.1016 C   0  0  0  0  0  0
   32.0500    1.8142   28.4694 S   0  0  0  0  0  0
   31.2871    0.3541   28.1010 C   0  0  0  0  0  0
   29.8105    0.1572   28.1538 C   0  0  0  0  0  0
   29.0557    1.2676   27.8290 C   0  0  0  0  0  0
   27.6780    1.1322   27.7728 C   0  0  0  0  0  0
   27.0584   -0.0653   28.0711 C   0  0  0  0  0  0
   25.6657   -0.1063   27.9832 O   0  0  0  0  0  0
   27.8157   -1.1840   28.3499 C   0  0  0  0  0  0
   29.1975   -1.0428   28.3875 C   0  0  0  0  0  0
   33.5858    0.0401   27.5841 C   0  0  0  0  0  0
   32.2468   -0.5276   27.5605 C   0  0  0  0  0  0
   31.9867   -1.7917   27.0666 C   0  0  0  0  0  0
   31.5473   -2.6618   27.8288 O   0  0  0  0  0  0
   32.2233   -2.1620   25.6669 C   0  0  0  0  0  0
   32.7432   -3.3994   25.3447 C   0  0  0  0  0  0
   32.9917   -3.7737   24.0384 C   0  0  0  0  0  0
   32.7349   -2.8581   23.0193 C   0  0  0  0  0  0
   32.2063   -1.6179   23.3298 C   0  0  0  0  0  0
   31.9414   -1.2790   24.6461 C   0  0  0  0  0  0
   32.9101   -2.9967   21.6741 O   0  0  0  0  0  0
   33.9120   -2.1870   21.0779 C   0  0  0  0  0  0
   35.2387   -2.4144   21.7522 C   0  0  0  0  0  0
   36.0213   -3.6320   21.8445 N   0  0  0  0  0  0
   37.2334   -3.4830   21.0139 C   0  0  0  0  0  0
   38.2265   -4.6550   21.1469 C   0  0  0  0  0  0
   37.4954   -5.9132   20.6512 C   0  0  0  0  0  0
   36.3409   -6.1059   21.6820 C   0  0  0  0  0  0
   35.3797   -4.9174   21.5058 C   0  0  0  0  0  0
   37.2514    2.9891   28.0558 H   0  0  0  0  0  0
   25.2420   -0.8503   27.6026 H   0  0  0  0  0  0
  1  2  2  0  0  0
  1 16  1  0  0  0
  2  3  1  0  0  0
  3  4  1  0  0  0
  3  5  2  0  0  0
  4 35  1  0  0  0
  5  6  1  0  0  0
  6  7  1  0  0  0
  6 16  2  0  0  0
  7  8  1  0  0  0
  8  9  1  0  0  0
  8 17  2  0  0  0
  9 10  2  0  0  0
  9 15  1  0  0  0
 10 11  1  0  0  0
 11 12  2  0  0  0
 12 13  1  0  0  0
 12 14  1  0  0  0
 13 36  1  0  0  0
 14 15  2  0  0  0
 16 17  1  0  0  0
 17 18  1  0  0  0
 18 19  2  0  0  0
 18 20  1  0  0  0
 20 21  2  0  0  0
 20 25  1  0  0  0
 21 22  1  0  0  0
 22 23  2  0  0  0
 23 24  1  0  0  0
 23 26  1  0  0  0
 24 25  2  0  0  0
 26 27  1  0  0  0
 27 28  1  0  0  0
 28 29  1  0  0  0
 29 30  1  0  0  0
 29 34  1  0  0  0
 30 31  1  0  0  0
 31 32  1  0  0  0
 32 33  1  0  0  0
 33 34  1  0  0  0
M  END
>  <CHROM.0>
83.71004322,-60.56480275,109.75453745

>  <CHROM.1>
172.85200235,32.68496729,138.27012071,-62.97571872,140.31099661,-112.86758378
56.02021665,61.77194274,110.12968479,32.90975375,-1.30744396,25.56876373
-2.24971986,-0.16079535,-2.30655620

>  <FORMUL>
      RAL    C28 H27 N1 O4 S1

>  <HET>
 RAL  A 600      34

>  <HETNAM>
     RAL RALOXIFENE

>  <Name>
RAL.pdb

>  <RI>
0

>  <Rbt.Current_Directory>
/home/malgorzata/Desktop/rDOCK_IFD/Wyniki/6b_estrogen_receptor

>  <Rbt.Executable>
rbdock ($Id: //depot/dev/client3/rdock/2013.1/src/exe/rbdock.cxx#4 $)

>  <Rbt.Library>
libRbt.so (2013.1, Build901 2013/11/27)

>  <Rbt.Parameter_File>
/home/malgorzata/Desktop/rDock_2013.1_src/data/scripts/soft_docking.prm

>  <Rbt.Receptor>
cavity.prm

>  <SCORE>
-27.8961

>  <SCORE.INTER>
-29.1286

>  <SCORE.INTER.CONST>
1

>  <SCORE.INTER.POLAR>
-0.545832

>  <SCORE.INTER.REPUL>
0.0768431

>  <SCORE.INTER.ROT>
7

>  <SCORE.INTER.VDW>
-40.057

>  <SCORE.INTER.norm>
-0.856725

>  <SCORE.INTRA>
1.75207

>  <SCORE.INTRA.DIHEDRAL>
8.438

>  <SCORE.INTRA.DIHEDRAL.0>
18.358

>  <SCORE.INTRA.POLAR>
0

>  <SCORE.INTRA.POLAR.0>
0

>  <SCORE.INTRA.REPUL>
0

>  <SCORE.INTRA.REPUL.0>
0

>  <SCORE.INTRA.VDW>
0.0644669

>  <SCORE.INTRA.VDW.0>
-1.94569

>  <SCORE.INTRA.norm>
0.0515314

>  <SCORE.RESTR>
0

>  <SCORE.RESTR.CAVITY>
0

>  <SCORE.RESTR.norm>
0

>  <SCORE.SYSTEM>
-0.519557

>  <SCORE.SYSTEM.CONST>
0

>  <SCORE.SYSTEM.DIHEDRAL>
0.803183

>  <SCORE.SYSTEM.VDW>
-0.921148

>  <SCORE.SYSTEM.norm>
-0.0152811

>  <SCORE.heavy>
34

>  <SCORE.norm>
-0.820475

$$$$
RAL.pdb
  rDOCK(R)          3D
libRbt.so/2013.1/901 2013/11/27
 36 40  0  0  0  0  0  0  0  0999 V2000
   27.4586   -0.8114   26.8735 C   0  0  0  0  0  0
   26.3433   -1.2630   27.5308 C   0  0  0  0  0  0
   26.3288   -1.4940   28.8781 C   0  0  0  0  0  0
   25.1404   -1.9164   29.4196 O   0  0  0  0  0  0
   27.4846   -1.2469   29.6277 C   0  0  0  0  0  0
   28.5888   -0.7620   28.9712 C   0  0  0  0  0  0
   30.0961   -0.4229   29.5580 S   0  0  0  0  0  0
   30.7985    0.1055   28.1168 C   0  0  0  0  0  0
   32.2348    0.4827   27.9875 C   0  0  0  0  0  0
   32.4953    1.5211   27.1147 C   0  0  0  0  0  0
   33.7979    1.9815   27.0111 C   0  0  0  0  0  0
   34.8270    1.4002   27.7252 C   0  0  0  0  0  0
   36.1057    1.9352   27.5584 O   0  0  0  0  0  0
   34.5577    0.3945   28.6301 C   0  0  0  0  0  0
   33.2456   -0.0494   28.7397 C   0  0  0  0  0  0
   28.5807   -0.5464   27.5635 C   0  0  0  0  0  0
   29.8658   -0.0730   27.0734 C   0  0  0  0  0  0
   30.1036    0.1712   25.7342 C   0  0  0  0  0  0
   29.6028    1.1696   25.2018 O   0  0  0  0  0  0
   30.9199   -0.7154   24.8977 C   0  0  0  0  0  0
   31.7476   -1.6593   25.4717 C   0  0  0  0  0  0
   32.5400   -2.4992   24.7133 C   0  0  0  0  0  0
   32.5212   -2.3653   23.3261 C   0  0  0  0  0  0
   31.6895   -1.4283   22.7395 C   0  0  0  0  0  0
   30.8853   -0.6175   23.5227 C   0  0  0  0  0  0
   33.2173   -3.0647   22.3850 O   0  0  0  0  0  0
   34.1825   -3.9879   22.8655 C   0  0  0  0  0  0
   35.1945   -4.2928   21.7934 C   0  0  0  0  0  0
   35.6510   -3.4548   20.7013 N   0  0  0  0  0  0
   36.9886   -2.9249   21.0349 C   0  0  0  0  0  0
   37.6503   -2.1383   19.8855 C   0  0  0  0  0  0
   36.7471   -0.9277   19.6000 C   0  0  0  0  0  0
   35.4206   -1.5641   19.0824 C   0  0  0  0  0  0
   34.8005   -2.3307   20.2636 C   0  0  0  0  0  0
   24.9701   -1.7897   30.3323 H   0  0  0  0  0  0
   36.3863    2.6532   28.0910 H   0  0  0  0  0  0
  1  2  2  0  0  0
  1 16  1  0  0  0
  2  3  1  0  0  0
  3  4  1  0  0  0
  3  5  2  0  0  0
  4 35  1  0  0  0
  5  6  1  0  0  0
  6  7  1  0  0  0
  6 16  2  0  0  0
  7  8  1  0  0  0
  8  9  1  0  0  0
  8 17  2  0  0  0
  9 10  2  0  0  0
  9 15  1  0  0  0
 10 11  1  0  0  0
 11 12  2  0  0  0
 12 13  1  0  0  0
 12 14  1  0  0  0
 13 36  1  0  0  0
 14 15  2  0  0  0
 16 17  1  0  0  0
 17 18  1  0  0  0
 18 19  2  0  0  0
 18 20  1  0  0  0
 20 21  2  0  0  0
 20 25  1  0  0  0
 21 22  1  0  0  0
 22 23  2  0  0  0
 23 24  1  0  0  0
 23 26  1  0  0  0
 24 25  2  0  0  0
 26 27  1  0  0  0
 27 28  1  0  0  0
 28 29  1  0  0  0
 29 30  1  0  0  0
 29 34  1  0  0  0
 30 31  1  0  0  0
 31 32  1  0  0  0
 32 33  1  0  0  0
 33 34  1  0  0  0
M  END
>  <CHROM.0>
-49.58275245,-60.56480275,80.55909301

>  <CHROM.1>
-157.40690891,-145.01085919,87.38422462,-106.30754990,-15.57016615,-5.78823917
-159.01360023,29.04151526,103.53609227,31.98535735,-0.98278783,25.43176108
2.36177323,0.29888832,1.05689924

>  <FORMUL>
      RAL    C28 H27 N1 O4 S1

>  <HET>
 RAL  A 600      34

>  <HETNAM>
     RAL RALOXIFENE

>  <Name>
RAL.pdb

>  <RI>
0

>  <Rbt.Current_Directory>
/home/malgorzata/Desktop/rDOCK_IFD/Wyniki/6b_estrogen_receptor

>  <Rbt.Executable>
rbdock ($Id: //depot/dev/client3/rdock/2013.1/src/exe/rbdock.cxx#4 $)

>  <Rbt.Library>
libRbt.so (2013.1, Build901 2013/11/27)

>  <Rbt.Parameter_File>
/home/malgorzata/Desktop/rDock_2013.1_src/data/scripts/soft_docking.prm

>  <Rbt.Receptor>
cavity.prm

>  <SCORE>
-31.9656

>  <SCORE.INTER>
-33.003

>  <SCORE.INTER.CONST>
1

>  <SCORE.INTER.POLAR>
-1.21745

>  <SCORE.INTER.REPUL>
0

>  <SCORE.INTER.ROT>
7

>  <SCORE.INTER.VDW>
-41.2637

>  <SCORE.INTER.norm>
-0.970677

>  <SCORE.INTRA>
1.80879

>  <SCORE.INTRA.DIHEDRAL>
9.96199

>  <SCORE.INTRA.DIHEDRAL.0>
18.358

>  <SCORE.INTRA.POLAR>
0

>  <SCORE.INTRA.POLAR.0>
0

>  <SCORE.INTRA.REPUL>
0

>  <SCORE.INTRA.REPUL.0>
0

>  <SCORE.INTRA.VDW>
-0.183605

>  <SCORE.INTRA.VDW.0>
-1.94569

>  <SCORE.INTRA.norm>
0.0531998

>  <SCORE.RESTR>
0.0416542

>  <SCORE.RESTR.CAVITY>
0.0416542

>  <SCORE.RESTR.norm>
0.00122512

>  <SCORE.SYSTEM>
-0.813045

>  <SCORE.SYSTEM.CONST>
0

>  <SCORE.SYSTEM.DIHEDRAL>
0.802205

>  <SCORE.SYSTEM.POLAR>
-0.000623895

>  <SCORE.SYSTEM.VDW>
-1.21203

>  <SCORE.SYSTEM.norm>
-0.0239131

>  <SCORE.heavy>
34

>  <SCORE.norm>
-0.940165

$$$$
