REMARK  9 active torsions:
REMARK  status: ('A' for Active; 'I' for Inactive)
REMARK    1  A    between atoms: C1_1  and  C2_4 
REMARK    2  A    between atoms: C4_6  and  NE_29 
REMARK    3  A    between atoms: C5_7  and  N5_8 
REMARK       I    between atoms: N5_8  and  C10_10 
REMARK    4  A    between atoms: C6_13  and  C7_15 
REMARK       I    between atoms: C7_15  and  N8_17 
REMARK    5  A    between atoms: N8_17  and  C81_18 
REMARK    6  A    between atoms: N8_17  and  C9_26 
REMARK    7  A    between atoms: C81_18  and  C82_19 
REMARK    8  A    between atoms: C82_19  and  CG_20 
REMARK    9  A    between atoms: C9_26  and  C91_27 
ROOT
HETATM    1  C2  DPC A 466      -1.750  57.978  -7.144  1.00  9.12     0.144 C 
HETATM    2  C3  DPC A 466      -0.950  56.908  -7.087  1.00  7.83     0.051 C 
HETATM    3  C4  DPC A 466      -0.797  55.999  -8.275  1.00  8.13     0.234 C 
HETATM    4  C5  DPC A 466      -1.301  56.648  -9.562  1.00  4.13     0.157 C 
HETATM    5  C6  DPC A 466      -2.616  57.367  -9.274  1.00  9.37     0.246 C 
HETATM    6  O6  DPC A 466      -2.462  58.288  -8.228  1.00 10.40    -0.328 OA
ENDROOT
BRANCH   5   7
HETATM    7  C7  DPC A 466      -3.003  58.214 -10.466  1.00 10.79     0.251 C 
HETATM    8  O7  DPC A 466      -2.293  58.277 -11.124  1.00  9.13    -0.270 OA
HETATM    9  N8  DPC A 466      -4.253  58.632 -10.606  1.00  9.99    -0.350 N 
BRANCH   9  10
HETATM   10  C81 DPC A 466      -4.560  59.375 -11.849  1.00  8.72     0.130 C 
BRANCH  10  11
HETATM   11  C82 DPC A 466      -4.392  60.889 -11.683  1.00  6.37     0.058 C 
BRANCH  11  12
HETATM   12  CG  DPC A 466      -3.897  61.175 -10.279  1.00 13.21    -0.057 A 
HETATM   13  CD1 DPC A 466      -4.816  61.417  -9.233  1.00 12.56     0.007 A 
HETATM   14  CE1 DPC A 466      -4.365  61.751  -7.944  1.00 14.24     0.001 A 
HETATM   15  CZ  DPC A 466      -2.984  61.838  -7.691  1.00 14.76     0.000 A 
HETATM   16  CE2 DPC A 466      -2.073  61.568  -8.722  1.00 12.57     0.001 A 
HETATM   17  CD2 DPC A 466      -2.524  61.237 -10.004  1.00 12.80     0.007 A 
ENDBRANCH  11  12
ENDBRANCH  10  11
ENDBRANCH   9  10
BRANCH   9  18
HETATM   18  C9  DPC A 466      -5.292  58.465  -9.592  1.00 12.20     0.125 C 
BRANCH  18  19
HETATM   19  C91 DPC A 466      -6.198  57.254  -9.873  1.00 11.35     0.015 C 
HETATM   20  C92 DPC A 466      -5.605  55.888  -9.478  1.00 10.72     0.006 C 
ENDBRANCH  18  19
ENDBRANCH   9  18
ENDBRANCH   5   7
BRANCH   4  21
HETATM   21  N5  DPC A 466      -1.533  55.613 -10.563  1.00  8.66    -0.351 N 
HETATM   22  C10 DPC A 466      -0.577  54.833 -11.090  1.00  8.96     0.214 C 
HETATM   23  O10 DPC A 466       0.596  54.974 -10.788  1.00  8.83    -0.274 OA
HETATM   24  C11 DPC A 466      -1.045  53.729 -12.055  1.00  5.01     0.117 C 
ATOM     25  H5  DPC A 466      -2.490  55.472 -10.885  1.00  0.00     0.163 HD
ENDBRANCH   4  21
BRANCH   3  26
HETATM   26  NE  DPC A 466       0.589  55.641  -8.417  1.00  7.66    -0.070 N 
ATOM     27  HE3 DPC A 466       1.077  56.236  -9.087  1.00  0.00     0.275 HD
ATOM     28  HE2 DPC A 466       1.138  55.877  -7.590  1.00  0.00     0.275 HD
ATOM     29  HE1 DPC A 466       0.655  54.652  -8.658  1.00  0.00     0.275 HD
ENDBRANCH   3  26
BRANCH   1  30
HETATM   30  C1  DPC A 466      -1.948  58.842  -5.967  1.00 12.45     0.233 C 
HETATM   31  O1A DPC A 466      -3.045  59.358  -5.787  1.00 13.44    -0.642 OA
HETATM   32  O1B DPC A 466      -1.073  58.967  -5.120  1.00 11.63    -0.642 OA
ENDBRANCH   1  30
TORSDOF 9
