REMARK  9 active torsions:
REMARK  status: ('A' for Active; 'I' for Inactive)
REMARK    1  A    between atoms: C1_1  and  C2_4 
REMARK    2  A    between atoms: C4_6  and  NE_29 
REMARK    3  A    between atoms: C5_7  and  N5_8 
REMARK       I    between atoms: N5_8  and  C10_10 
REMARK    4  A    between atoms: C6_13  and  C7_15 
REMARK       I    between atoms: C7_15  and  N8_17 
REMARK    5  A    between atoms: N8_17  and  C81_18 
REMARK    6  A    between atoms: N8_17  and  C9_26 
REMARK    7  A    between atoms: C81_18  and  C82_19 
REMARK    8  A    between atoms: C82_19  and  CG_20 
REMARK    9  A    between atoms: C9_26  and  C91_27 
ROOT
HETATM    1  C2  DPC A 466      -1.878  57.979  -7.000  1.00  9.12     0.144 C 
HETATM    2  C3  DPC A 466      -0.848  57.131  -6.918  1.00  7.83     0.051 C 
HETATM    3  C4  DPC A 466      -0.698  56.006  -7.905  1.00  8.13     0.234 C 
HETATM    4  C5  DPC A 466      -1.567  56.210  -9.143  1.00  4.13     0.157 C 
HETATM    5  C6  DPC A 466      -2.943  56.711  -8.709  1.00  9.37     0.246 C 
HETATM    6  O6  DPC A 466      -2.828  57.871  -7.930  1.00 10.40    -0.328 OA
ENDROOT
BRANCH   5   7
HETATM    7  C7  DPC A 466      -3.731  57.149  -9.923  1.00 10.79     0.251 C 
HETATM    8  O7  DPC A 466      -3.181  57.607 -10.578  1.00  9.13    -0.270 OA
HETATM    9  N8  DPC A 466      -4.986  56.750 -10.080  1.00  9.99    -0.350 N 
BRANCH   9  10
HETATM   10  C81 DPC A 466      -5.647  57.151 -11.341  1.00  8.72     0.130 C 
BRANCH  10  11
HETATM   11  C82 DPC A 466      -6.572  58.359 -11.160  1.00  6.37     0.058 C 
BRANCH  11  12
HETATM   12  CG  DPC A 466      -5.787  59.484 -10.515  1.00 13.21    -0.057 A 
HETATM   13  CD1 DPC A 466      -4.844  60.219 -11.268  1.00 12.56     0.007 A 
HETATM   14  CE1 DPC A 466      -4.063  61.218 -10.659  1.00 14.24     0.001 A 
HETATM   15  CZ  DPC A 466      -4.228  61.493  -9.290  1.00 14.76     0.000 A 
HETATM   16  CE2 DPC A 466      -5.185  60.783  -8.552  1.00 12.57     0.001 A 
HETATM   17  CD2 DPC A 466      -5.960  59.790  -9.158  1.00 12.80     0.007 A 
ENDBRANCH  11  12
ENDBRANCH  10  11
ENDBRANCH   9  10
BRANCH   9  18
HETATM   18  C9  DPC A 466      -5.747  56.021  -9.067  1.00 12.20     0.125 C 
BRANCH  18  19
HETATM   19  C91 DPC A 466      -6.250  54.660  -9.577  1.00 11.35     0.015 C 
HETATM   20  C92 DPC A 466      -5.147  53.640  -9.916  1.00 10.72     0.006 C 
ENDBRANCH  18  19
ENDBRANCH   9  18
ENDBRANCH   5   7
BRANCH   4  21
HETATM   21  N5  DPC A 466      -1.722  54.938  -9.838  1.00  8.66    -0.351 N 
HETATM   22  C10 DPC A 466      -0.729  54.281 -10.458  1.00  8.96     0.214 C 
HETATM   23  O10 DPC A 466       0.397  54.746 -10.520  1.00  8.83    -0.274 OA
HETATM   24  C11 DPC A 466      -1.077  52.900 -11.041  1.00  5.01     0.117 C 
ATOM     25  H5  DPC A 466      -2.650  54.516  -9.854  1.00  0.00     0.163 HD
ENDBRANCH   4  21
BRANCH   3  26
HETATM   26  NE  DPC A 466       0.684  55.899  -8.290  1.00  7.66    -0.070 N 
ATOM     27  HE3 DPC A 466       0.976  54.931  -8.423  1.00  0.00     0.275 HD
ATOM     28  HE2 DPC A 466       0.849  56.231  -9.240  1.00  0.00     0.275 HD
ATOM     29  HE1 DPC A 466       1.259  56.386  -7.602  1.00  0.00     0.275 HD
ENDBRANCH   3  26
BRANCH   1  30
HETATM   30  C1  DPC A 466      -2.061  59.050  -6.005  1.00 12.45     0.233 C 
HETATM   31  O1A DPC A 466      -1.078  59.492  -5.422  1.00 13.44    -0.642 OA
HETATM   32  O1B DPC A 466      -3.155  59.571  -5.829  1.00 11.63    -0.642 OA
ENDBRANCH   1  30
TORSDOF 9
