REMARK  9 active torsions:
REMARK  status: ('A' for Active; 'I' for Inactive)
REMARK    1  A    between atoms: C1_1  and  C2_4 
REMARK    2  A    between atoms: C4_6  and  NE_29 
REMARK    3  A    between atoms: C5_7  and  N5_8 
REMARK       I    between atoms: N5_8  and  C10_10 
REMARK    4  A    between atoms: C6_13  and  C7_15 
REMARK       I    between atoms: C7_15  and  N8_17 
REMARK    5  A    between atoms: N8_17  and  C81_18 
REMARK    6  A    between atoms: N8_17  and  C9_26 
REMARK    7  A    between atoms: C81_18  and  C82_19 
REMARK    8  A    between atoms: C82_19  and  CG_20 
REMARK    9  A    between atoms: C9_26  and  C91_27 
ROOT
HETATM    1  C2  DPC A 466      -1.930  58.475  -6.846  1.00  9.12     0.144 C 
HETATM    2  C3  DPC A 466      -0.722  57.958  -6.598  1.00  7.83     0.051 C 
HETATM    3  C4  DPC A 466      -0.295  56.663  -7.235  1.00  8.13     0.234 C 
HETATM    4  C5  DPC A 466      -1.183  56.287  -8.418  1.00  4.13     0.157 C 
HETATM    5  C6  DPC A 466      -2.642  56.550  -8.050  1.00  9.37     0.246 C 
HETATM    6  O6  DPC A 466      -2.820  57.880  -7.640  1.00 10.40    -0.328 OA
ENDROOT
BRANCH   5   7
HETATM    7  C7  DPC A 466      -3.509  56.417  -9.282  1.00 10.79     0.251 C 
HETATM    8  O7  DPC A 466      -4.183  55.726  -9.189  1.00  9.13    -0.270 OA
HETATM    9  N8  DPC A 466      -3.413  57.305 -10.262  1.00  9.99    -0.350 N 
BRANCH   9  10
HETATM   10  C81 DPC A 466      -4.364  57.147 -11.384  1.00  8.72     0.130 C 
BRANCH  10  11
HETATM   11  C82 DPC A 466      -3.693  56.603 -12.649  1.00  6.37     0.058 C 
BRANCH  11  12
HETATM   12  CG  DPC A 466      -2.887  55.372 -12.285  1.00 13.21    -0.057 A 
HETATM   13  CD1 DPC A 466      -1.503  55.317 -12.563  1.00 12.56     0.007 A 
HETATM   14  CE1 DPC A 466      -0.763  54.153 -12.290  1.00 14.24     0.001 A 
HETATM   15  CZ  DPC A 466      -1.405  53.035 -11.728  1.00 14.76     0.000 A 
HETATM   16  CE2 DPC A 466      -2.772  53.102 -11.425  1.00 12.57     0.001 A 
HETATM   17  CD2 DPC A 466      -3.507  54.260 -11.697  1.00 12.80     0.007 A 
ENDBRANCH  11  12
ENDBRANCH  10  11
ENDBRANCH   9  10
BRANCH   9  18
HETATM   18  C9  DPC A 466      -2.397  58.354 -10.320  1.00 12.20     0.125 C 
BRANCH  18  19
HETATM   19  C91 DPC A 466      -2.990  59.727 -10.678  1.00 11.35     0.015 C 
HETATM   20  C92 DPC A 466      -2.637  60.866  -9.702  1.00 10.72     0.006 C 
ENDBRANCH  18  19
ENDBRANCH   9  18
ENDBRANCH   5   7
BRANCH   4  21
HETATM   21  N5  DPC A 466      -1.016  54.869  -8.713  1.00  8.66    -0.351 N 
HETATM   22  C10 DPC A 466       0.150  54.289  -9.038  1.00  8.96     0.214 C 
HETATM   23  O10 DPC A 466       1.173  54.943  -9.154  1.00  8.83    -0.274 OA
HETATM   24  C11 DPC A 466       0.134  52.759  -9.208  1.00  5.01     0.117 C 
ATOM     25  H5  DPC A 466      -1.844  54.275  -8.670  1.00  0.00     0.163 HD
ENDBRANCH   4  21
BRANCH   3  26
HETATM   26  NE  DPC A 466       1.072  56.781  -7.667  1.00  7.66    -0.070 N 
ATOM     27  HE3 DPC A 466       1.662  56.037  -7.295  1.00  0.00     0.275 HD
ATOM     28  HE2 DPC A 466       1.185  56.571  -8.659  1.00  0.00     0.275 HD
ATOM     29  HE1 DPC A 466       1.419  57.709  -7.424  1.00  0.00     0.275 HD
ENDBRANCH   3  26
BRANCH   1  30
HETATM   30  C1  DPC A 466      -2.376  59.714  -6.183  1.00 12.45     0.233 C 
HETATM   31  O1A DPC A 466      -1.612  60.280  -5.411  1.00 13.44    -0.642 OA
HETATM   32  O1B DPC A 466      -3.445  60.235  -6.470  1.00 11.63    -0.642 OA
ENDBRANCH   1  30
TORSDOF 9
