REMARK  9 active torsions:
REMARK  status: ('A' for Active; 'I' for Inactive)
REMARK    1  A    between atoms: C1_1  and  C2_4 
REMARK    2  A    between atoms: C4_6  and  NE_29 
REMARK    3  A    between atoms: C5_7  and  N5_8 
REMARK       I    between atoms: N5_8  and  C10_10 
REMARK    4  A    between atoms: C6_13  and  C7_15 
REMARK       I    between atoms: C7_15  and  N8_17 
REMARK    5  A    between atoms: N8_17  and  C81_18 
REMARK    6  A    between atoms: N8_17  and  C9_26 
REMARK    7  A    between atoms: C81_18  and  C82_19 
REMARK    8  A    between atoms: C82_19  and  CG_20 
REMARK    9  A    between atoms: C9_26  and  C91_27 
ROOT
HETATM    1  C2  DPC A 466      -1.484  57.792  -7.108  1.00  9.12     0.144 C 
HETATM    2  C3  DPC A 466      -0.410  57.000  -7.031  1.00  7.83     0.051 C 
HETATM    3  C4  DPC A 466      -0.104  56.012  -8.124  1.00  8.13     0.234 C 
HETATM    4  C5  DPC A 466      -0.877  56.316  -9.404  1.00  4.13     0.157 C 
HETATM    5  C6  DPC A 466      -2.315  56.683  -9.041  1.00  9.37     0.246 C 
HETATM    6  O6  DPC A 466      -2.343  57.745  -8.127  1.00 10.40    -0.328 OA
ENDROOT
BRANCH   5   7
HETATM    7  C7  DPC A 466      -3.025  57.219 -10.263  1.00 10.79     0.251 C 
HETATM    8  O7  DPC A 466      -2.445  57.755 -10.827  1.00  9.13    -0.270 OA
HETATM    9  N8  DPC A 466      -4.251  56.806 -10.555  1.00  9.99    -0.350 N 
BRANCH   9  10
HETATM   10  C81 DPC A 466      -4.831  57.314 -11.818  1.00  8.72     0.130 C 
BRANCH  10  11
HETATM   11  C82 DPC A 466      -5.915  58.370 -11.583  1.00  6.37     0.058 C 
BRANCH  11  12
HETATM   12  CG  DPC A 466      -5.328  59.498 -10.759  1.00 13.21    -0.057 A 
HETATM   13  CD1 DPC A 466      -4.338  60.344 -11.308  1.00 12.56     0.007 A 
HETATM   14  CE1 DPC A 466      -3.740  61.349 -10.527  1.00 14.24     0.001 A 
HETATM   15  CZ  DPC A 466      -4.136  61.519  -9.188  1.00 14.76     0.000 A 
HETATM   16  CE2 DPC A 466      -5.140  60.700  -8.654  1.00 12.57     0.001 A 
HETATM   17  CD2 DPC A 466      -5.733  59.700  -9.431  1.00 12.80     0.007 A 
ENDBRANCH  11  12
ENDBRANCH  10  11
ENDBRANCH   9  10
BRANCH   9  18
HETATM   18  C9  DPC A 466      -5.060  55.959  -9.681  1.00 12.20     0.125 C 
BRANCH  18  19
HETATM   19  C91 DPC A 466      -5.007  54.476 -10.086  1.00 11.35     0.015 C 
HETATM   20  C92 DPC A 466      -6.328  53.703  -9.915  1.00 10.72     0.006 C 
ENDBRANCH  18  19
ENDBRANCH   9  18
ENDBRANCH   5   7
BRANCH   4  21
HETATM   21  N5  DPC A 466      -0.888  55.130 -10.252  1.00  8.66    -0.351 N 
HETATM   22  C10 DPC A 466      -1.459  53.961  -9.922  1.00  8.96     0.214 C 
HETATM   23  O10 DPC A 466      -1.985  53.796  -8.835  1.00  8.83    -0.274 OA
HETATM   24  C11 DPC A 466      -1.452  52.863 -11.002  1.00  5.01     0.117 C 
ATOM     25  H5  DPC A 466      -0.430  55.193 -11.160  1.00  0.00     0.163 HD
ENDBRANCH   4  21
BRANCH   3  26
HETATM   26  NE  DPC A 466       1.310  56.030  -8.390  1.00  7.66    -0.070 N 
ATOM     27  HE3 DPC A 466       1.723  56.949  -8.235  1.00  0.00     0.275 HD
ATOM     28  HE2 DPC A 466       1.844  55.513  -7.691  1.00  0.00     0.275 HD
ATOM     29  HE1 DPC A 466       1.474  55.686  -9.336  1.00  0.00     0.275 HD
ENDBRANCH   3  26
BRANCH   1  30
HETATM   30  C1  DPC A 466      -1.820  58.724  -6.017  1.00 12.45     0.233 C 
HETATM   31  O1A DPC A 466      -0.912  59.290  -5.420  1.00 13.44    -0.642 OA
HETATM   32  O1B DPC A 466      -2.983  59.015  -5.769  1.00 11.63    -0.642 OA
ENDBRANCH   1  30
TORSDOF 9
