REMARK  9 active torsions:
REMARK  status: ('A' for Active; 'I' for Inactive)
REMARK    1  A    between atoms: C1_1  and  C2_4 
REMARK    2  A    between atoms: C4_6  and  NE_29 
REMARK    3  A    between atoms: C5_7  and  N5_8 
REMARK       I    between atoms: N5_8  and  C10_10 
REMARK    4  A    between atoms: C6_13  and  C7_15 
REMARK       I    between atoms: C7_15  and  N8_17 
REMARK    5  A    between atoms: N8_17  and  C81_18 
REMARK    6  A    between atoms: N8_17  and  C9_26 
REMARK    7  A    between atoms: C81_18  and  C82_19 
REMARK    8  A    between atoms: C82_19  and  CG_20 
REMARK    9  A    between atoms: C9_26  and  C91_27 
ROOT
HETATM    1  C2  DPC A 466      -1.734  58.054  -7.313  1.00  9.12     0.144 C 
HETATM    2  C3  DPC A 466      -0.725  57.225  -7.025  1.00  7.83     0.051 C 
HETATM    3  C4  DPC A 466      -0.352  56.114  -7.968  1.00  8.13     0.234 C 
HETATM    4  C5  DPC A 466      -0.950  56.317  -9.358  1.00  4.13     0.157 C 
HETATM    5  C6  DPC A 466      -2.395  56.787  -9.214  1.00  9.37     0.246 C 
HETATM    6  O6  DPC A 466      -2.468  57.940  -8.419  1.00 10.40    -0.328 OA
ENDROOT
BRANCH   5   7
HETATM    7  C7  DPC A 466      -2.924  57.224 -10.561  1.00 10.79     0.251 C 
HETATM    8  O7  DPC A 466      -2.252  57.674 -11.097  1.00  9.13    -0.270 OA
HETATM    9  N8  DPC A 466      -4.126  56.835 -10.962  1.00  9.99    -0.350 N 
BRANCH   9  10
HETATM   10  C81 DPC A 466      -4.522  57.234 -12.331  1.00  8.72     0.130 C 
BRANCH  10  11
HETATM   11  C82 DPC A 466      -4.859  58.725 -12.433  1.00  6.37     0.058 C 
BRANCH  11  12
HETATM   12  CG  DPC A 466      -4.955  59.301 -11.034  1.00 13.21    -0.057 A 
HETATM   13  CD1 DPC A 466      -6.082  59.031 -10.226  1.00 12.56     0.007 A 
HETATM   14  CE1 DPC A 466      -6.211  59.617  -8.955  1.00 14.24     0.001 A 
HETATM   15  CZ  DPC A 466      -5.203  60.475  -8.478  1.00 14.76     0.000 A 
HETATM   16  CE2 DPC A 466      -4.071  60.718  -9.268  1.00 12.57     0.001 A 
HETATM   17  CD2 DPC A 466      -3.945  60.135 -10.533  1.00 12.80     0.007 A 
ENDBRANCH  11  12
ENDBRANCH  10  11
ENDBRANCH   9  10
BRANCH   9  18
HETATM   18  C9  DPC A 466      -5.079  56.117 -10.117  1.00 12.20     0.125 C 
BRANCH  18  19
HETATM   19  C91 DPC A 466      -4.873  54.594 -10.163  1.00 11.35     0.015 C 
HETATM   20  C92 DPC A 466      -6.141  53.755  -9.916  1.00 10.72     0.006 C 
ENDBRANCH  18  19
ENDBRANCH   9  18
ENDBRANCH   5   7
BRANCH   4  21
HETATM   21  N5  DPC A 466      -0.931  55.049 -10.079  1.00  8.66    -0.351 N 
HETATM   22  C10 DPC A 466      -0.803  54.931 -11.410  1.00  8.96     0.214 C 
HETATM   23  O10 DPC A 466      -0.736  55.911 -12.131  1.00  8.83    -0.274 OA
HETATM   24  C11 DPC A 466      -0.699  53.499 -11.966  1.00  5.01     0.117 C 
ATOM     25  H5  DPC A 466      -1.022  54.193  -9.534  1.00  0.00     0.163 HD
ENDBRANCH   4  21
BRANCH   3  26
HETATM   26  NE  DPC A 466       1.082  56.037  -8.059  1.00  7.66    -0.070 N 
ATOM     27  HE3 DPC A 466       1.538  56.221  -7.166  1.00  0.00     0.275 HD
ATOM     28  HE2 DPC A 466       1.412  55.080  -8.193  1.00  0.00     0.275 HD
ATOM     29  HE1 DPC A 466       1.403  56.665  -8.796  1.00  0.00     0.275 HD
ENDBRANCH   3  26
BRANCH   1  30
HETATM   30  C1  DPC A 466      -2.140  59.111  -6.368  1.00 12.45     0.233 C 
HETATM   31  O1A DPC A 466      -1.278  59.677  -5.706  1.00 13.44    -0.642 OA
HETATM   32  O1B DPC A 466      -3.300  59.497  -6.313  1.00 11.63    -0.642 OA
ENDBRANCH   1  30
TORSDOF 9
