REMARK  3 active torsions:
REMARK  status: ('A' for Active; 'I' for Inactive)
REMARK    1  A    between atoms: C2_3  and  C6_7 
REMARK    2  A    between atoms: C9_10  and  C12_13 
REMARK    3  A    between atoms: C12_13  and  C14_15 
ROOT
HETATM    1  C6  FLP A 701      26.873  22.696  15.215  1.00 22.32     0.013 A 
HETATM    2  C7  FLP A 701      25.932  22.292  16.193  1.00 24.22     0.016 A 
HETATM    3  C8  FLP A 701      26.380  21.896  17.490  1.00 25.16     0.009 A 
HETATM    4  C9  FLP A 701      27.786  21.913  17.785  1.00 27.53    -0.041 A 
HETATM    5  C10 FLP A 701      28.697  22.306  16.811  1.00 25.73     0.051 A 
HETATM    6  C11 FLP A 701      28.259  22.699  15.542  1.00 26.42     0.128 A 
HETATM    7  F   FLP A 701      29.178  23.100  14.624  1.00 30.59    -0.205 F 
ENDROOT
BRANCH   1   8
HETATM    8  C2  FLP A 701      26.438  23.102  13.823  1.00 15.36    -0.023 A 
HETATM    9  C1  FLP A 701      26.984  24.223  13.206  1.00  9.77     0.012 A 
HETATM   10  C   FLP A 701      26.544  24.605  11.920  1.00  8.08     0.001 A 
HETATM   11  C5  FLP A 701      25.572  23.875  11.258  1.00 11.48     0.000 A 
HETATM   12  C4  FLP A 701      25.025  22.753  11.872  1.00 11.16     0.001 A 
HETATM   13  C3  FLP A 701      25.458  22.366  13.154  1.00 13.94     0.012 A 
ENDBRANCH   1   8
BRANCH   4  14
HETATM   14  C12 FLP A 701      28.304  21.600  19.174  1.00 27.44     0.115 C 
HETATM   15  C13 FLP A 701      29.677  22.232  19.391  1.00 27.63     0.026 C 
BRANCH  14  16
HETATM   16  C14 FLP A 701      28.392  20.080  19.312  1.00 27.04     0.181 C 
HETATM   17  O   FLP A 701      29.447  19.516  19.164  1.00 30.37    -0.647 OA
HETATM   18  O1  FLP A 701      27.323  19.371  19.561  1.00 25.86    -0.647 OA
ENDBRANCH  14  16
ENDBRANCH   4  14
TORSDOF 3
