REMARK  3 active torsions:
REMARK  status: ('A' for Active; 'I' for Inactive)
REMARK    1  A    between atoms: C2_3  and  C6_7 
REMARK    2  A    between atoms: C9_10  and  C12_13 
REMARK    3  A    between atoms: C12_13  and  C14_15 
ROOT
HETATM    1  C6  FLP A 701      26.791  22.663  15.183  1.00 22.32     0.013 A 
HETATM    2  C7  FLP A 701      25.862  22.219  16.155  1.00 24.22     0.016 A 
HETATM    3  C8  FLP A 701      26.320  21.833  17.452  1.00 25.16     0.009 A 
HETATM    4  C9  FLP A 701      27.724  21.903  17.752  1.00 27.53    -0.041 A 
HETATM    5  C10 FLP A 701      28.622  22.334  16.784  1.00 25.73     0.051 A 
HETATM    6  C11 FLP A 701      28.174  22.716  15.515  1.00 26.42     0.128 A 
HETATM    7  F   FLP A 701      29.080  23.156  14.602  1.00 30.59    -0.205 F 
ENDROOT
BRANCH   1   8
HETATM    8  C2  FLP A 701      26.346  23.059  13.791  1.00 15.36    -0.023 A 
HETATM    9  C1  FLP A 701      26.851  24.204  13.182  1.00  9.77     0.012 A 
HETATM   10  C   FLP A 701      26.402  24.575  11.896  1.00  8.08     0.001 A 
HETATM   11  C5  FLP A 701      25.460  23.812  11.227  1.00 11.48     0.000 A 
HETATM   12  C4  FLP A 701      24.954  22.667  11.833  1.00 11.16     0.001 A 
HETATM   13  C3  FLP A 701      25.396  22.291  13.116  1.00 13.94     0.012 A 
ENDBRANCH   1   8
BRANCH   4  14
HETATM   14  C12 FLP A 701      28.248  21.602  19.142  1.00 27.44     0.115 C 
HETATM   15  C13 FLP A 701      29.630  22.219  19.340  1.00 27.63     0.026 C 
BRANCH  14  16
HETATM   16  C14 FLP A 701      28.317  20.083  19.301  1.00 27.04     0.181 C 
HETATM   17  O   FLP A 701      27.323  19.453  19.564  1.00 30.37    -0.647 OA
HETATM   18  O1  FLP A 701      29.456  19.453  19.186  1.00 25.86    -0.647 OA
ENDBRANCH  14  16
ENDBRANCH   4  14
TORSDOF 3
