REMARK  3 active torsions:
REMARK  status: ('A' for Active; 'I' for Inactive)
REMARK    1  A    between atoms: C2_3  and  C6_7 
REMARK    2  A    between atoms: C9_10  and  C12_13 
REMARK    3  A    between atoms: C12_13  and  C14_15 
ROOT
HETATM    1  C6  FLP A 701      26.855  22.677  15.155  1.00 22.32     0.013 A 
HETATM    2  C7  FLP A 701      25.910  22.252  16.120  1.00 24.22     0.016 A 
HETATM    3  C8  FLP A 701      26.348  21.862  17.422  1.00 25.16     0.009 A 
HETATM    4  C9  FLP A 701      27.751  21.908  17.735  1.00 27.53    -0.041 A 
HETATM    5  C10 FLP A 701      28.665  22.321  16.774  1.00 25.73     0.051 A 
HETATM    6  C11 FLP A 701      28.236  22.707  15.500  1.00 26.42     0.128 A 
HETATM    7  F   FLP A 701      29.158  23.129  14.594  1.00 30.59    -0.205 F 
ENDROOT
BRANCH   1   8
HETATM    8  C2  FLP A 701      26.430  23.076  13.758  1.00 15.36    -0.023 A 
HETATM    9  C1  FLP A 701      26.963  24.208  13.149  1.00  9.77     0.012 A 
HETATM   10  C   FLP A 701      26.532  24.583  11.857  1.00  8.08     0.001 A 
HETATM   11  C5  FLP A 701      25.581  23.837  11.183  1.00 11.48     0.000 A 
HETATM   12  C4  FLP A 701      25.046  22.705  11.789  1.00 11.16     0.001 A 
HETATM   13  C3  FLP A 701      25.470  22.325  13.077  1.00 13.94     0.012 A 
ENDBRANCH   1   8
BRANCH   4  14
HETATM   14  C12 FLP A 701      28.256  21.603  19.130  1.00 27.44     0.115 C 
HETATM   15  C13 FLP A 701      29.616  22.257  19.364  1.00 27.63     0.026 C 
BRANCH  14  16
HETATM   16  C14 FLP A 701      28.368  20.085  19.269  1.00 27.04     0.181 C 
HETATM   17  O   FLP A 701      29.420  19.531  19.067  1.00 30.37    -0.647 OA
HETATM   18  O1  FLP A 701      27.321  19.365  19.578  1.00 25.86    -0.647 OA
ENDBRANCH  14  16
ENDBRANCH   4  14
TORSDOF 3
