REMARK  3 active torsions:
REMARK  status: ('A' for Active; 'I' for Inactive)
REMARK    1  A    between atoms: C2_3  and  C6_7 
REMARK    2  A    between atoms: C9_10  and  C12_13 
REMARK    3  A    between atoms: C12_13  and  C14_15 
ROOT
HETATM    1  C6  FLP A 701      26.673  22.530  15.164  1.00 22.32     0.013 A 
HETATM    2  C7  FLP A 701      25.846  21.908  16.130  1.00 24.22     0.016 A 
HETATM    3  C8  FLP A 701      26.382  21.561  17.408  1.00 25.16     0.009 A 
HETATM    4  C9  FLP A 701      27.760  21.850  17.695  1.00 27.53    -0.041 A 
HETATM    5  C10 FLP A 701      28.560  22.455  16.733  1.00 25.73     0.051 A 
HETATM    6  C11 FLP A 701      28.035  22.799  15.483  1.00 26.42     0.128 A 
HETATM    7  F   FLP A 701      28.841  23.412  14.576  1.00 30.59    -0.205 F 
ENDROOT
BRANCH   1   8
HETATM    8  C2  FLP A 701      26.147  22.892  13.791  1.00 15.36    -0.023 A 
HETATM    9  C1  FLP A 701      26.448  24.123  13.217  1.00  9.77     0.012 A 
HETATM   10  C   FLP A 701      25.922  24.457  11.949  1.00  8.08     0.001 A 
HETATM   11  C5  FLP A 701      25.108  23.572  11.265  1.00 11.48     0.000 A 
HETATM   12  C4  FLP A 701      24.806  22.340  11.836  1.00 11.16     0.001 A 
HETATM   13  C3  FLP A 701      25.325  22.000  13.100  1.00 13.94     0.012 A 
ENDBRANCH   1   8
BRANCH   4  14
HETATM   14  C12 FLP A 701      28.349  21.595  19.068  1.00 27.44     0.115 C 
HETATM   15  C13 FLP A 701      29.748  22.197  19.173  1.00 27.63     0.026 C 
BRANCH  14  16
HETATM   16  C14 FLP A 701      28.405  20.083  19.283  1.00 27.04     0.181 C 
HETATM   17  O   FLP A 701      29.449  19.490  19.170  1.00 30.37    -0.647 OA
HETATM   18  O1  FLP A 701      27.320  19.409  19.561  1.00 25.86    -0.647 OA
ENDBRANCH  14  16
ENDBRANCH   4  14
TORSDOF 3
