REMARK  3 active torsions:
REMARK  status: ('A' for Active; 'I' for Inactive)
REMARK    1  A    between atoms: C2_3  and  C6_7 
REMARK    2  A    between atoms: C9_10  and  C12_13 
REMARK    3  A    between atoms: C12_13  and  C14_15 
ROOT
HETATM    1  C6  FLP A 701      26.867  22.759  15.279  1.00 22.32     0.013 A 
HETATM    2  C7  FLP A 701      25.918  22.390  16.262  1.00 24.22     0.016 A 
HETATM    3  C8  FLP A 701      26.358  21.975  17.556  1.00 25.16     0.009 A 
HETATM    4  C9  FLP A 701      27.766  21.938  17.842  1.00 27.53    -0.041 A 
HETATM    5  C10 FLP A 701      28.685  22.297  16.863  1.00 25.73     0.051 A 
HETATM    6  C11 FLP A 701      28.254  22.708  15.598  1.00 26.42     0.128 A 
HETATM    7  F   FLP A 701      29.182  23.075  14.674  1.00 30.59    -0.205 F 
ENDROOT
BRANCH   1   8
HETATM    8  C2  FLP A 701      26.440  23.183  13.890  1.00 15.36    -0.023 A 
HETATM    9  C1  FLP A 701      26.945  24.345  13.315  1.00  9.77     0.012 A 
HETATM   10  C   FLP A 701      26.512  24.742  12.031  1.00  8.08     0.001 A 
HETATM   11  C5  FLP A 701      25.586  23.988  11.331  1.00 11.48     0.000 A 
HETATM   12  C4  FLP A 701      25.079  22.826  11.904  1.00 11.16     0.001 A 
HETATM   13  C3  FLP A 701      25.506  22.424  13.184  1.00 13.94     0.012 A 
ENDBRANCH   1   8
BRANCH   4  14
HETATM   14  C12 FLP A 701      28.280  21.603  19.227  1.00 27.44     0.115 C 
HETATM   15  C13 FLP A 701      29.645  22.244  19.464  1.00 27.63     0.026 C 
BRANCH  14  16
HETATM   16  C14 FLP A 701      28.382  20.082  19.337  1.00 27.04     0.181 C 
HETATM   17  O   FLP A 701      29.444  19.531  19.179  1.00 30.37    -0.647 OA
HETATM   18  O1  FLP A 701      27.320  19.358  19.572  1.00 25.86    -0.647 OA
ENDBRANCH  14  16
ENDBRANCH   4  14
TORSDOF 3
