REMARK  3 active torsions:
REMARK  status: ('A' for Active; 'I' for Inactive)
REMARK    1  A    between atoms: C2_3  and  C6_7 
REMARK    2  A    between atoms: C9_10  and  C12_13 
REMARK    3  A    between atoms: C12_13  and  C14_15 
ROOT
HETATM    1  C6  FLP A 701      26.675  22.516  15.171  1.00 22.32     0.013 A 
HETATM    2  C7  FLP A 701      25.826  21.980  16.170  1.00 24.22     0.016 A 
HETATM    3  C8  FLP A 701      26.361  21.638  17.449  1.00 25.16     0.009 A 
HETATM    4  C9  FLP A 701      27.761  21.844  17.705  1.00 27.53    -0.041 A 
HETATM    5  C10 FLP A 701      28.580  22.365  16.710  1.00 25.73     0.051 A 
HETATM    6  C11 FLP A 701      28.057  22.704  15.459  1.00 26.42     0.128 A 
HETATM    7  F   FLP A 701      28.885  23.233  14.520  1.00 30.59    -0.205 F 
ENDROOT
BRANCH   1   8
HETATM    8  C2  FLP A 701      26.149  22.869  13.796  1.00 15.36    -0.023 A 
HETATM    9  C1  FLP A 701      26.514  24.062  13.180  1.00  9.77     0.012 A 
HETATM   10  C   FLP A 701      25.989  24.391  11.911  1.00  8.08     0.001 A 
HETATM   11  C5  FLP A 701      25.111  23.538  11.265  1.00 11.48     0.000 A 
HETATM   12  C4  FLP A 701      24.744  22.344  11.878  1.00 11.16     0.001 A 
HETATM   13  C3  FLP A 701      25.263  22.010  13.144  1.00 13.94     0.012 A 
ENDBRANCH   1   8
BRANCH   4  14
HETATM   14  C12 FLP A 701      28.356  21.593  19.075  1.00 27.44     0.115 C 
HETATM   15  C13 FLP A 701      29.756  22.195  19.171  1.00 27.63     0.026 C 
BRANCH  14  16
HETATM   16  C14 FLP A 701      28.412  20.082  19.295  1.00 27.04     0.181 C 
HETATM   17  O   FLP A 701      29.459  19.491  19.196  1.00 30.37    -0.647 OA
HETATM   18  O1  FLP A 701      27.325  19.407  19.561  1.00 25.86    -0.647 OA
ENDBRANCH  14  16
ENDBRANCH   4  14
TORSDOF 3
