REMARK  3 active torsions:
REMARK  status: ('A' for Active; 'I' for Inactive)
REMARK    1  A    between atoms: C2_3  and  C6_7 
REMARK    2  A    between atoms: C9_10  and  C12_13 
REMARK    3  A    between atoms: C12_13  and  C14_15 
ROOT
HETATM    1  C6  FLP A 701      26.697  22.580  15.201  1.00 22.32     0.013 A 
HETATM    2  C7  FLP A 701      25.831  22.107  16.217  1.00 24.22     0.016 A 
HETATM    3  C8  FLP A 701      26.363  21.746  17.493  1.00 25.16     0.009 A 
HETATM    4  C9  FLP A 701      27.775  21.870  17.728  1.00 27.53    -0.041 A 
HETATM    5  C10 FLP A 701      28.611  22.330  16.717  1.00 25.73     0.051 A 
HETATM    6  C11 FLP A 701      28.091  22.687  15.469  1.00 26.42     0.128 A 
HETATM    7  F   FLP A 701      28.937  23.156  14.513  1.00 30.59    -0.205 F 
ENDROOT
BRANCH   1   8
HETATM    8  C2  FLP A 701      26.174  22.951  13.830  1.00 15.36    -0.023 A 
HETATM    9  C1  FLP A 701      26.607  24.110  13.194  1.00  9.77     0.012 A 
HETATM   10  C   FLP A 701      26.085  24.457  11.928  1.00  8.08     0.001 A 
HETATM   11  C5  FLP A 701      25.144  23.655  11.306  1.00 11.48     0.000 A 
HETATM   12  C4  FLP A 701      24.709  22.495  11.940  1.00 11.16     0.001 A 
HETATM   13  C3  FLP A 701      25.224  22.143  13.202  1.00 13.94     0.012 A 
ENDBRANCH   1   8
BRANCH   4  14
HETATM   14  C12 FLP A 701      28.374  21.597  19.093  1.00 27.44     0.115 C 
HETATM   15  C13 FLP A 701      29.780  22.183  19.190  1.00 27.63     0.026 C 
BRANCH  14  16
HETATM   16  C14 FLP A 701      28.415  20.083  19.295  1.00 27.04     0.181 C 
HETATM   17  O   FLP A 701      29.455  19.482  19.181  1.00 30.37    -0.647 OA
HETATM   18  O1  FLP A 701      27.324  19.416  19.563  1.00 25.86    -0.647 OA
ENDBRANCH  14  16
ENDBRANCH   4  14
TORSDOF 3
