REMARK  3 active torsions:
REMARK  status: ('A' for Active; 'I' for Inactive)
REMARK    1  A    between atoms: C2_3  and  C6_7 
REMARK    2  A    between atoms: C9_10  and  C12_13 
REMARK    3  A    between atoms: C12_13  and  C14_15 
ROOT
HETATM    1  C6  FLP A 701      26.820  22.625  15.183  1.00 22.32     0.013 A 
HETATM    2  C7  FLP A 701      25.926  22.163  16.179  1.00 24.22     0.016 A 
HETATM    3  C8  FLP A 701      26.424  21.789  17.465  1.00 25.16     0.009 A 
HETATM    4  C9  FLP A 701      27.834  21.889  17.729  1.00 27.53    -0.041 A 
HETATM    5  C10 FLP A 701      28.698  22.338  16.738  1.00 25.73     0.051 A 
HETATM    6  C11 FLP A 701      28.210  22.708  15.481  1.00 26.42     0.128 A 
HETATM    7  F   FLP A 701      29.084  23.166  14.544  1.00 30.59    -0.205 F 
ENDROOT
BRANCH   1   8
HETATM    8  C2  FLP A 701      26.332  23.010  13.803  1.00 15.36    -0.023 A 
HETATM    9  C1  FLP A 701      26.802  24.161  13.178  1.00  9.77     0.012 A 
HETATM   10  C   FLP A 701      26.312  24.521  11.903  1.00  8.08     0.001 A 
HETATM   11  C5  FLP A 701      25.366  23.740  11.261  1.00 11.48     0.000 A 
HETATM   12  C4  FLP A 701      24.896  22.588  11.883  1.00 11.16     0.001 A 
HETATM   13  C3  FLP A 701      25.378  22.223  13.155  1.00 13.94     0.012 A 
ENDBRANCH   1   8
BRANCH   4  14
HETATM   14  C12 FLP A 701      28.399  21.601  19.105  1.00 27.44     0.115 C 
HETATM   15  C13 FLP A 701      29.808  22.174  19.238  1.00 27.63     0.026 C 
BRANCH  14  16
HETATM   16  C14 FLP A 701      28.423  20.085  19.298  1.00 27.04     0.181 C 
HETATM   17  O   FLP A 701      29.454  19.472  19.175  1.00 30.37    -0.647 OA
HETATM   18  O1  FLP A 701      27.324  19.430  19.567  1.00 25.86    -0.647 OA
ENDBRANCH  14  16
ENDBRANCH   4  14
TORSDOF 3
