REMARK  3 active torsions:
REMARK  status: ('A' for Active; 'I' for Inactive)
REMARK    1  A    between atoms: C2_3  and  C6_7 
REMARK    2  A    between atoms: C9_10  and  C12_13 
REMARK    3  A    between atoms: C12_13  and  C14_15 
ROOT
HETATM    1  C6  FLP A 701      25.692  22.902  14.474  1.00 22.32     0.013 A 
HETATM    2  C7  FLP A 701      26.967  22.901  15.090  1.00 24.22     0.016 A 
HETATM    3  C8  FLP A 701      27.154  22.230  16.337  1.00 25.16     0.009 A 
HETATM    4  C9  FLP A 701      26.039  21.562  16.951  1.00 27.53    -0.041 A 
HETATM    5  C10 FLP A 701      24.793  21.579  16.336  1.00 25.73     0.051 A 
HETATM    6  C11 FLP A 701      24.610  22.232  15.113  1.00 26.42     0.128 A 
HETATM    7  F   FLP A 701      23.382  22.206  14.530  1.00 30.59    -0.205 F 
ENDROOT
BRANCH   1   8
HETATM    8  C2  FLP A 701      25.450  23.621  13.164  1.00 15.36    -0.023 A 
HETATM    9  C1  FLP A 701      25.965  24.895  12.947  1.00  9.77     0.012 A 
HETATM   10  C   FLP A 701      25.703  25.564  11.731  1.00  8.08     0.001 A 
HETATM   11  C5  FLP A 701      24.937  24.967  10.745  1.00 11.48     0.000 A 
HETATM   12  C4  FLP A 701      24.421  23.693  10.959  1.00 11.16     0.001 A 
HETATM   13  C3  FLP A 701      24.677  23.020  12.169  1.00 13.94     0.012 A 
ENDBRANCH   1   8
BRANCH   4  14
HETATM   14  C12 FLP A 701      26.208  20.752  18.220  1.00 27.44     0.115 C 
HETATM   15  C13 FLP A 701      27.388  21.273  19.037  1.00 27.63     0.026 C 
BRANCH  14  16
HETATM   16  C14 FLP A 701      26.441  19.295  17.822  1.00 27.04     0.181 C 
HETATM   17  O   FLP A 701      27.448  18.977  17.239  1.00 30.37    -0.647 OA
HETATM   18  O1  FLP A 701      25.542  18.382  18.079  1.00 25.86    -0.647 OA
ENDBRANCH  14  16
ENDBRANCH   4  14
TORSDOF 3
