570.pdb
  rDOCK(R)          3D
libRbt.so/2013.1/901 2013/11/27
 43 47  0  0  0  0  0  0  0  0999 V2000
   48.1696  -44.6963   12.5182 N   0  0  0  0  0  0
   48.9875  -43.4825   12.1460 C   0  0  0  0  0  0
   50.0891  -43.1407   13.1974 C   0  0  0  0  0  0
   49.7090  -43.4751   14.6442 C   0  0  0  0  0  0
   48.9583  -42.5107   15.3937 C   0  0  0  0  0  0
   50.0883  -44.7182   15.2501 C   0  0  0  0  0  0
   48.5863  -42.7743   16.7256 C   0  0  0  0  0  0
   49.7200  -44.9927   16.5868 C   0  0  0  0  0  0
   48.9508  -44.0067   17.3556 C   0  0  0  0  0  0
   48.5101  -44.1485   18.7062 O   0  0  0  0  0  0
   46.7885  -45.0915   12.2542 C   0  0  0  0  0  0
   45.8519  -45.3494   13.3538 C   0  0  0  0  0  0
   44.5065  -45.7330   12.9961 C   0  0  0  0  0  0
   44.1050  -45.8587   11.6455 C   0  0  0  0  0  0
   45.0172  -45.6086   10.6042 C   0  0  0  0  0  0
   46.3302  -45.2324   10.8949 C   0  0  0  0  0  0
   45.3151  -45.6091   16.1114 C   0  0  0  0  0  0
   45.4873  -44.8915   17.3550 C   0  0  0  0  0  0
   44.6966  -45.2170   18.4947 C   0  0  0  0  0  0
   43.7275  -46.2595   18.4068 C   0  0  0  0  0  0
   43.5519  -46.9723   17.1864 C   0  0  0  0  0  0
   44.3368  -46.6507   16.0516 C   0  0  0  0  0  0
   46.1672  -45.2441   14.9055 C   0  0  0  0  0  0
   47.2600  -44.7318   15.2239 O   0  0  0  0  0  0
   49.0790  -49.9506   18.7052 O   0  0  0  0  0  0
   48.9319  -49.7905   20.0784 C   0  0  0  0  0  0
   48.4319  -48.4776   20.2459 N   0  0  0  0  0  0
   48.3144  -47.9221   18.9899 C   0  0  0  0  0  0
   48.7293  -48.8428   17.9631 C   0  0  0  0  0  0
   48.7725  -48.6529   16.4415 C   0  0  0  0  0  0
   49.2111  -50.7014   21.0968 C   0  0  0  0  0  0
   49.7501  -52.0148   20.8349 C   0  0  0  0  0  0
   50.0113  -52.9042   21.9095 C   0  0  0  0  0  0
   49.7422  -52.5060   23.2449 C   0  0  0  0  0  0
   49.2129  -51.2154   23.5187 C   0  0  0  0  0  0
   48.9466  -50.3185   22.4541 C   0  0  0  0  0  0
   48.7162  -45.3929   19.4175 C   0  0  0  0  0  0
   47.7895  -46.4576   18.7998 C   0  0  0  0  0  0
   49.1378  -42.8767    9.8736 O   0  0  0  0  0  0
   50.4649  -44.5257   10.5700 O   0  0  0  0  0  0
   49.5884  -43.6241   10.7755 C   0  0  0  0  0  0
   48.6708  -45.3576   13.0481 H   0  0  0  0  0  0
   50.7084  -45.1088   11.2619 H   0  0  0  0  0  0
  1  2  1  0  0  0
  1 11  1  0  0  0
  1 42  1  0  0  0
  2  3  1  0  0  0
  2 41  1  0  0  0
  3  4  1  0  0  0
  4  5  2  0  0  0
  4  6  1  0  0  0
  5  7  1  0  0  0
  6  8  2  0  0  0
  7  9  2  0  0  0
  8  9  1  0  0  0
  9 10  1  0  0  0
 10 37  1  0  0  0
 11 12  2  0  0  0
 11 16  1  0  0  0
 12 13  1  0  0  0
 12 23  1  0  0  0
 13 14  2  0  0  0
 14 15  1  0  0  0
 15 16  2  0  0  0
 17 18  2  0  0  0
 17 22  1  0  0  0
 17 23  1  0  0  0
 18 19  1  0  0  0
 19 20  2  0  0  0
 20 21  1  0  0  0
 21 22  2  0  0  0
 23 24  2  0  0  0
 25 26  1  0  0  0
 25 29  1  0  0  0
 26 27  2  0  0  0
 26 31  1  0  0  0
 27 28  1  0  0  0
 28 29  2  0  0  0
 28 38  1  0  0  0
 29 30  1  0  0  0
 31 32  2  0  0  0
 31 36  1  0  0  0
 32 33  1  0  0  0
 33 34  2  0  0  0
 34 35  1  0  0  0
 35 36  2  0  0  0
 37 38  1  0  0  0
 39 41  2  0  0  0
 40 41  1  0  0  0
 40 43  1  0  0  0
M  END
>  <CHROM.0>
-56.54092019,-59.50991140,-155.22582759,32.55833857

>  <CHROM.1>
149.89596303,-120.67324224,-32.78502143,110.84271582,-85.20620072,174.78015855
-69.83929678,-173.69269945,-150.57901770,1.19014115,64.22761239,154.39484706
1.93413463,47.84334219,-46.37086678,16.35771788,-1.68206565,0.07774638,2.17744070

>  <FORMUL>
      570    C34 H30 N2 O5

>  <HET>
 570  D 200      41

>  <HETNAM>
     570 2-(2-BENZOYL-PHENYLAMINO)-3-{4-[2-(5-METHYL-2-PHENYL-OX
   2 570 AZOL-4-YL)-ETHOXY]-PHENYL}-PROPIONIC ACID

>  <HETSYN>
     570 GI262570

>  <Name>
570.pdb

>  <RI>
0

>  <Rbt.Current_Directory>
/home/malgorzata/Desktop/rDOCK_IFD/Wyniki/14_ppar-gamma/IFD

>  <Rbt.Executable>
rbdock ($Id: //depot/dev/client3/rdock/2013.1/src/exe/rbdock.cxx#4 $)

>  <Rbt.Library>
libRbt.so (2013.1, Build901 2013/11/27)

>  <Rbt.Parameter_File>
/home/malgorzata/Desktop/rDock_2013.1_src/data/scripts/hard_docking.prm

>  <Rbt.Receptor>
cavity.prm

>  <SCORE>
42.683

>  <SCORE.INTER>
-2.73351

>  <SCORE.INTER.CONST>
1

>  <SCORE.INTER.POLAR>
-0.190637

>  <SCORE.INTER.REPUL>
0.0693233

>  <SCORE.INTER.ROT>
12

>  <SCORE.INTER.VDW>
-19.832

>  <SCORE.INTER.norm>
-0.066671

>  <SCORE.INTRA>
3.36188

>  <SCORE.INTRA.DIHEDRAL>
8.53406

>  <SCORE.INTRA.DIHEDRAL.0>
12.9748

>  <SCORE.INTRA.POLAR>
0.058673

>  <SCORE.INTRA.POLAR.0>
-0.058673

>  <SCORE.INTRA.REPUL>
0

>  <SCORE.INTRA.REPUL.0>
0

>  <SCORE.INTRA.VDW>
-1.10464

>  <SCORE.INTRA.VDW.0>
-4.98062

>  <SCORE.INTRA.norm>
0.081997

>  <SCORE.RESTR>
42.1031

>  <SCORE.RESTR.CAVITY>
42.1031

>  <SCORE.RESTR.norm>
1.02691

>  <SCORE.SYSTEM>
-0.0484604

>  <SCORE.SYSTEM.CONST>
0

>  <SCORE.SYSTEM.DIHEDRAL>
2.2713

>  <SCORE.SYSTEM.VDW>
-1.18411

>  <SCORE.SYSTEM.norm>
-0.00118196

>  <SCORE.heavy>
41

>  <SCORE.norm>
1.04105

$$$$
570.pdb
  rDOCK(R)          3D
libRbt.so/2013.1/901 2013/11/27
 43 47  0  0  0  0  0  0  0  0999 V2000
   45.8756  -44.6326   15.5274 N   0  0  0  0  0  0
   46.7886  -43.4793   15.8696 C   0  0  0  0  0  0
   46.4445  -42.8112   17.2375 C   0  0  0  0  0  0
   46.0677  -41.3285   17.1409 C   0  0  0  0  0  0
   46.9061  -40.4594   16.3683 C   0  0  0  0  0  0
   44.9078  -40.8059   17.8026 C   0  0  0  0  0  0
   46.5992  -39.0905   16.2508 C   0  0  0  0  0  0
   44.5909  -39.4330   17.6912 C   0  0  0  0  0  0
   45.4478  -38.5416   16.9001 C   0  0  0  0  0  0
   45.2503  -37.1420   16.6989 O   0  0  0  0  0  0
   45.2488  -45.6834   16.3254 C   0  0  0  0  0  0
   45.9696  -46.9200   16.6481 C   0  0  0  0  0  0
   45.2699  -47.9010   17.4439 C   0  0  0  0  0  0
   43.9459  -47.6847   17.8929 C   0  0  0  0  0  0
   43.2700  -46.4933   17.5726 C   0  0  0  0  0  0
   43.9016  -45.5106   16.8075 C   0  0  0  0  0  0
   48.4943  -48.1527   16.9052 C   0  0  0  0  0  0
   49.8384  -48.2158   16.3753 C   0  0  0  0  0  0
   50.8307  -49.0167   17.0109 C   0  0  0  0  0  0
   50.4943  -49.7616   18.1794 C   0  0  0  0  0  0
   49.1728  -49.7062   18.7075 C   0  0  0  0  0  0
   48.1841  -48.9108   18.0776 C   0  0  0  0  0  0
   47.4505  -47.2893   16.2134 C   0  0  0  0  0  0
   47.8790  -46.7581   15.1684 O   0  0  0  0  0  0
   49.0099  -35.0283   18.5829 O   0  0  0  0  0  0
   48.9197  -35.0028   19.9701 C   0  0  0  0  0  0
   47.6830  -35.6204   20.2714 N   0  0  0  0  0  0
   47.0992  -35.9713   19.0731 C   0  0  0  0  0  0
   47.9250  -35.5996   17.9532 C   0  0  0  0  0  0
   47.6747  -35.7873   16.4514 C   0  0  0  0  0  0
   49.8281  -34.4852   20.8931 C   0  0  0  0  0  0
   49.6953  -34.6999   22.3145 C   0  0  0  0  0  0
   50.6466  -34.1457   23.2099 C   0  0  0  0  0  0
   51.7308  -33.3776   22.7112 C   0  0  0  0  0  0
   51.8758  -33.1588   21.3141 C   0  0  0  0  0  0
   50.9316  -33.7059   20.4097 C   0  0  0  0  0  0
   44.8574  -36.2912   17.8029 C   0  0  0  0  0  0
   45.7017  -36.6796   19.0318 C   0  0  0  0  0  0
   48.8948  -43.5607   14.8156 O   0  0  0  0  0  0
   48.7035  -44.6060   16.7742 O   0  0  0  0  0  0
   48.2335  -43.8919   15.8296 C   0  0  0  0  0  0
   45.6579  -44.6876   14.5689 H   0  0  0  0  0  0
   49.5892  -44.9095   16.7360 H   0  0  0  0  0  0
  1  2  1  0  0  0
  1 11  1  0  0  0
  1 42  1  0  0  0
  2  3  1  0  0  0
  2 41  1  0  0  0
  3  4  1  0  0  0
  4  5  2  0  0  0
  4  6  1  0  0  0
  5  7  1  0  0  0
  6  8  2  0  0  0
  7  9  2  0  0  0
  8  9  1  0  0  0
  9 10  1  0  0  0
 10 37  1  0  0  0
 11 12  2  0  0  0
 11 16  1  0  0  0
 12 13  1  0  0  0
 12 23  1  0  0  0
 13 14  2  0  0  0
 14 15  1  0  0  0
 15 16  2  0  0  0
 17 18  2  0  0  0
 17 22  1  0  0  0
 17 23  1  0  0  0
 18 19  1  0  0  0
 19 20  2  0  0  0
 20 21  1  0  0  0
 21 22  2  0  0  0
 23 24  2  0  0  0
 25 26  1  0  0  0
 25 29  1  0  0  0
 26 27  2  0  0  0
 26 31  1  0  0  0
 27 28  1  0  0  0
 28 29  2  0  0  0
 28 38  1  0  0  0
 29 30  1  0  0  0
 31 32  2  0  0  0
 31 36  1  0  0  0
 32 33  1  0  0  0
 33 34  2  0  0  0
 34 35  1  0  0  0
 35 36  2  0  0  0
 37 38  1  0  0  0
 39 41  2  0  0  0
 40 41  1  0  0  0
 40 43  1  0  0  0
M  END
>  <CHROM.0>
63.21281127,62.05165222,-168.01945219,4.60455314

>  <CHROM.1>
-37.16370909,-84.81545803,-119.59512709,101.87579641,-47.72691842,-137.39771292
43.67166558,149.99057405,-172.99761037,-170.78461132,146.65241722,84.77719988
176.55556397,47.52150922,-41.37547610,17.85970903,1.70105979,0.46070582,-2.95264532

>  <FORMUL>
      570    C34 H30 N2 O5

>  <HET>
 570  D 200      41

>  <HETNAM>
     570 2-(2-BENZOYL-PHENYLAMINO)-3-{4-[2-(5-METHYL-2-PHENYL-OX
   2 570 AZOL-4-YL)-ETHOXY]-PHENYL}-PROPIONIC ACID

>  <HETSYN>
     570 GI262570

>  <Name>
570.pdb

>  <RI>
0

>  <Rbt.Current_Directory>
/home/malgorzata/Desktop/rDOCK_IFD/Wyniki/14_ppar-gamma/IFD

>  <Rbt.Executable>
rbdock ($Id: //depot/dev/client3/rdock/2013.1/src/exe/rbdock.cxx#4 $)

>  <Rbt.Library>
libRbt.so (2013.1, Build901 2013/11/27)

>  <Rbt.Parameter_File>
/home/malgorzata/Desktop/rDock_2013.1_src/data/scripts/hard_docking.prm

>  <Rbt.Receptor>
cavity.prm

>  <SCORE>
0.66869

>  <SCORE.INTER>
-16.6644

>  <SCORE.INTER.CONST>
1

>  <SCORE.INTER.POLAR>
-0.69282

>  <SCORE.INTER.REPUL>
0

>  <SCORE.INTER.ROT>
12

>  <SCORE.INTER.VDW>
-31.7088

>  <SCORE.INTER.norm>
-0.406449

>  <SCORE.INTRA>
11.4977

>  <SCORE.INTRA.DIHEDRAL>
19.3245

>  <SCORE.INTRA.DIHEDRAL.0>
12.9748

>  <SCORE.INTRA.POLAR>
0.058673

>  <SCORE.INTRA.POLAR.0>
-0.058673

>  <SCORE.INTRA.REPUL>
0

>  <SCORE.INTRA.REPUL.0>
0

>  <SCORE.INTRA.VDW>
1.636

>  <SCORE.INTRA.VDW.0>
-4.98062

>  <SCORE.INTRA.norm>
0.280432

>  <SCORE.RESTR>
7.40859

>  <SCORE.RESTR.CAVITY>
7.40859

>  <SCORE.RESTR.norm>
0.180697

>  <SCORE.SYSTEM>
-1.57323

>  <SCORE.SYSTEM.CONST>
0

>  <SCORE.SYSTEM.DIHEDRAL>
0.301943

>  <SCORE.SYSTEM.VDW>
-1.7242

>  <SCORE.SYSTEM.norm>
-0.0383714

>  <SCORE.heavy>
41

>  <SCORE.norm>
0.0163095

$$$$
570.pdb
  rDOCK(R)          3D
libRbt.so/2013.1/901 2013/11/27
 43 47  0  0  0  0  0  0  0  0999 V2000
   45.9256  -43.1880   19.1762 N   0  0  0  0  0  0
   46.3996  -41.8994   18.5472 C   0  0  0  0  0  0
   47.5044  -42.1161   17.4663 C   0  0  0  0  0  0
   47.1330  -43.1262   16.3749 C   0  0  0  0  0  0
   46.8910  -42.6404   15.0481 C   0  0  0  0  0  0
   47.0245  -44.5280   16.6573 C   0  0  0  0  0  0
   46.5475  -43.5311   14.0133 C   0  0  0  0  0  0
   46.6801  -45.4306   15.6257 C   0  0  0  0  0  0
   46.4325  -44.9351   14.2663 C   0  0  0  0  0  0
   46.0805  -45.7268   13.1314 O   0  0  0  0  0  0
   46.6024  -44.4274   19.5495 C   0  0  0  0  0  0
   45.9446  -45.7283   19.3833 C   0  0  0  0  0  0
   46.6922  -46.8991   19.7779 C   0  0  0  0  0  0
   48.0014  -46.8006   20.3048 C   0  0  0  0  0  0
   48.6158  -45.5445   20.4582 C   0  0  0  0  0  0
   47.9377  -44.3806   20.0901 C   0  0  0  0  0  0
   43.7672  -47.2826   18.4872 C   0  0  0  0  0  0
   44.3880  -48.5464   18.8168 C   0  0  0  0  0  0
   43.7270  -49.7752   18.5287 C   0  0  0  0  0  0
   42.4422  -49.7572   17.9101 C   0  0  0  0  0  0
   41.8238  -48.5173   17.5810 C   0  0  0  0  0  0
   42.4788  -47.2939   17.8663 C   0  0  0  0  0  0
   44.4884  -45.9819   18.8059 C   0  0  0  0  0  0
   43.8206  -44.9725   18.5009 O   0  0  0  0  0  0
   50.2771  -45.4858   15.6933 O   0  0  0  0  0  0
   49.7537  -46.7727   15.7481 C   0  0  0  0  0  0
   49.0112  -46.9208   14.5530 N   0  0  0  0  0  0
   49.1161  -45.7353   13.8575 C   0  0  0  0  0  0
   49.9242  -44.7762   14.5655 C   0  0  0  0  0  0
   50.3015  -43.3412   14.1759 C   0  0  0  0  0  0
   49.9033  -47.7324   16.7489 C   0  0  0  0  0  0
   49.6281  -47.4522   18.1380 C   0  0  0  0  0  0
   49.8018  -48.4654   19.1164 C   0  0  0  0  0  0
   50.2478  -49.7569   18.7326 C   0  0  0  0  0  0
   50.5214  -50.0483   17.3685 C   0  0  0  0  0  0
   50.3530  -49.0446   16.3821 C   0  0  0  0  0  0
   47.1083  -46.3671   12.3374 C   0  0  0  0  0  0
   48.4033  -45.5437   12.4749 C   0  0  0  0  0  0
   44.1405  -41.6872   17.9107 O   0  0  0  0  0  0
   45.4637  -39.9325   17.5421 O   0  0  0  0  0  0
   45.2525  -41.1095   17.9819 C   0  0  0  0  0  0
   44.9616  -43.1938   19.3759 H   0  0  0  0  0  0
   46.2524  -39.7420   17.0735 H   0  0  0  0  0  0
  1  2  1  0  0  0
  1 11  1  0  0  0
  1 42  1  0  0  0
  2  3  1  0  0  0
  2 41  1  0  0  0
  3  4  1  0  0  0
  4  5  2  0  0  0
  4  6  1  0  0  0
  5  7  1  0  0  0
  6  8  2  0  0  0
  7  9  2  0  0  0
  8  9  1  0  0  0
  9 10  1  0  0  0
 10 37  1  0  0  0
 11 12  2  0  0  0
 11 16  1  0  0  0
 12 13  1  0  0  0
 12 23  1  0  0  0
 13 14  2  0  0  0
 14 15  1  0  0  0
 15 16  2  0  0  0
 17 18  2  0  0  0
 17 22  1  0  0  0
 17 23  1  0  0  0
 18 19  1  0  0  0
 19 20  2  0  0  0
 20 21  1  0  0  0
 21 22  2  0  0  0
 23 24  2  0  0  0
 25 26  1  0  0  0
 25 29  1  0  0  0
 26 27  2  0  0  0
 26 31  1  0  0  0
 27 28  1  0  0  0
 28 29  2  0  0  0
 28 38  1  0  0  0
 29 30  1  0  0  0
 31 32  2  0  0  0
 31 36  1  0  0  0
 32 33  1  0  0  0
 33 34  2  0  0  0
 34 35  1  0  0  0
 35 36  2  0  0  0
 37 38  1  0  0  0
 39 41  2  0  0  0
 40 41  1  0  0  0
 40 43  1  0  0  0
M  END
>  <CHROM.0>
-57.12578318,61.69595436,-119.51580067,179.96651033

>  <CHROM.1>
36.67911871,-142.74291757,53.03273262,-10.88834755,110.28425086,94.81795470
-26.73752254,174.22051342,5.17477809,52.04534390,29.84030343,74.71894514
38.43775346,46.97099643,-45.60686892,17.03184218,-2.92563659,-0.60415017
2.79349900

>  <FORMUL>
      570    C34 H30 N2 O5

>  <HET>
 570  D 200      41

>  <HETNAM>
     570 2-(2-BENZOYL-PHENYLAMINO)-3-{4-[2-(5-METHYL-2-PHENYL-OX
   2 570 AZOL-4-YL)-ETHOXY]-PHENYL}-PROPIONIC ACID

>  <HETSYN>
     570 GI262570

>  <Name>
570.pdb

>  <RI>
0

>  <Rbt.Current_Directory>
/home/malgorzata/Desktop/rDOCK_IFD/Wyniki/14_ppar-gamma/IFD

>  <Rbt.Executable>
rbdock ($Id: //depot/dev/client3/rdock/2013.1/src/exe/rbdock.cxx#4 $)

>  <Rbt.Library>
libRbt.so (2013.1, Build901 2013/11/27)

>  <Rbt.Parameter_File>
/home/malgorzata/Desktop/rDock_2013.1_src/data/scripts/hard_docking.prm

>  <Rbt.Receptor>
cavity.prm

>  <SCORE>
63.3078

>  <SCORE.INTER>
32.0706

>  <SCORE.INTER.CONST>
1

>  <SCORE.INTER.POLAR>
0

>  <SCORE.INTER.REPUL>
0

>  <SCORE.INTER.ROT>
12

>  <SCORE.INTER.VDW>
14.6706

>  <SCORE.INTER.norm>
0.78221

>  <SCORE.INTRA>
14.0761

>  <SCORE.INTRA.DIHEDRAL>
24.8197

>  <SCORE.INTRA.DIHEDRAL.0>
12.9748

>  <SCORE.INTRA.POLAR>
0.0481996

>  <SCORE.INTRA.POLAR.0>
-0.058673

>  <SCORE.INTRA.REPUL>
0.04102

>  <SCORE.INTRA.REPUL.0>
0

>  <SCORE.INTRA.VDW>
1.29721

>  <SCORE.INTRA.VDW.0>
-4.98062

>  <SCORE.INTRA.norm>
0.343318

>  <SCORE.RESTR>
16.682

>  <SCORE.RESTR.CAVITY>
16.682

>  <SCORE.RESTR.norm>
0.406877

>  <SCORE.SYSTEM>
0.479159

>  <SCORE.SYSTEM.CONST>
0

>  <SCORE.SYSTEM.DIHEDRAL>
3.6783

>  <SCORE.SYSTEM.VDW>
-1.35999

>  <SCORE.SYSTEM.norm>
0.0116868

>  <SCORE.heavy>
41

>  <SCORE.norm>
1.54409

$$$$
570.pdb
  rDOCK(R)          3D
libRbt.so/2013.1/901 2013/11/27
 43 47  0  0  0  0  0  0  0  0999 V2000
   46.8516  -47.7213   16.9109 N   0  0  0  0  0  0
   45.8319  -46.6590   17.2461 C   0  0  0  0  0  0
   45.5960  -45.6476   16.0811 C   0  0  0  0  0  0
   46.0741  -44.2210   16.3745 C   0  0  0  0  0  0
   45.5012  -43.5241   17.4886 C   0  0  0  0  0  0
   47.0693  -43.5828   15.5630 C   0  0  0  0  0  0
   45.9095  -42.2125   17.7966 C   0  0  0  0  0  0
   47.4861  -42.2662   15.8635 C   0  0  0  0  0  0
   46.9012  -41.5511   17.0043 C   0  0  0  0  0  0
   47.2257  -40.2259   17.4249 O   0  0  0  0  0  0
   46.7766  -49.1741   16.7789 C   0  0  0  0  0  0
   47.9932  -49.9895   16.6905 C   0  0  0  0  0  0
   47.8204  -51.4176   16.5639 C   0  0  0  0  0  0
   46.5359  -52.0090   16.5238 C   0  0  0  0  0  0
   45.3806  -51.2110   16.6087 C   0  0  0  0  0  0
   45.4913  -49.8247   16.7344 C   0  0  0  0  0  0
   50.1576  -48.4568   17.6527 C   0  0  0  0  0  0
   51.4804  -47.9628   17.3408 C   0  0  0  0  0  0
   52.1224  -47.0213   18.1961 C   0  0  0  0  0  0
   51.4535  -46.5630   19.3692 C   0  0  0  0  0  0
   50.1511  -47.0450   19.6848 C   0  0  0  0  0  0
   49.5104  -47.9812   18.8362 C   0  0  0  0  0  0
   49.4885  -49.4594   16.7250 C   0  0  0  0  0  0
   50.2513  -49.8686   15.8257 O   0  0  0  0  0  0
   45.9597  -35.0245   15.1014 O   0  0  0  0  0  0
   47.0715  -35.3631   14.3382 C   0  0  0  0  0  0
   47.2618  -36.7479   14.5567 N   0  0  0  0  0  0
   46.2794  -37.1623   15.4303 C   0  0  0  0  0  0
   45.4174  -36.0736   15.8122 C   0  0  0  0  0  0
   44.2095  -36.0709   16.7579 C   0  0  0  0  0  0
   47.8547  -34.5421   13.5274 C   0  0  0  0  0  0
   48.8828  -35.0648   12.6591 C   0  0  0  0  0  0
   49.6540  -34.1829   11.8581 C   0  0  0  0  0  0
   49.4180  -32.7844   11.9091 C   0  0  0  0  0  0
   48.4082  -32.2549   12.7580 C   0  0  0  0  0  0
   47.6321  -33.1251   13.5636 C   0  0  0  0  0  0
   47.5257  -39.1998   16.4481 C   0  0  0  0  0  0
   46.1928  -38.6550   15.9000 C   0  0  0  0  0  0
   44.4137  -47.5337   18.9126 O   0  0  0  0  0  0
   43.6437  -47.5458   16.8216 O   0  0  0  0  0  0
   44.5314  -47.2669   17.6919 C   0  0  0  0  0  0
   47.7528  -47.3602   16.7477 H   0  0  0  0  0  0
   43.8190  -47.4053   15.9118 H   0  0  0  0  0  0
  1  2  1  0  0  0
  1 11  1  0  0  0
  1 42  1  0  0  0
  2  3  1  0  0  0
  2 41  1  0  0  0
  3  4  1  0  0  0
  4  5  2  0  0  0
  4  6  1  0  0  0
  5  7  1  0  0  0
  6  8  2  0  0  0
  7  9  2  0  0  0
  8  9  1  0  0  0
  9 10  1  0  0  0
 10 37  1  0  0  0
 11 12  2  0  0  0
 11 16  1  0  0  0
 12 13  1  0  0  0
 12 23  1  0  0  0
 13 14  2  0  0  0
 14 15  1  0  0  0
 15 16  2  0  0  0
 17 18  2  0  0  0
 17 22  1  0  0  0
 17 23  1  0  0  0
 18 19  1  0  0  0
 19 20  2  0  0  0
 20 21  1  0  0  0
 21 22  2  0  0  0
 23 24  2  0  0  0
 25 26  1  0  0  0
 25 29  1  0  0  0
 26 27  2  0  0  0
 26 31  1  0  0  0
 27 28  1  0  0  0
 28 29  2  0  0  0
 28 38  1  0  0  0
 29 30  1  0  0  0
 31 32  2  0  0  0
 31 36  1  0  0  0
 32 33  1  0  0  0
 33 34  2  0  0  0
 34 35  1  0  0  0
 35 36  2  0  0  0
 37 38  1  0  0  0
 39 41  2  0  0  0
 40 41  1  0  0  0
 40 43  1  0  0  0
M  END
>  <CHROM.0>
-168.82489348,-173.95286178,-159.15667412,1.07966766

>  <CHROM.1>
-116.65466033,-168.17655329,-112.79235673,87.45015603,-59.89823088,-143.75168604
80.81975756,46.25838406,-169.35916084,-172.04684411,51.59631157,151.26637631
2.57219744,47.35134504,-43.03399927,16.24461330,1.55426690,-0.10522565,2.91844356

>  <FORMUL>
      570    C34 H30 N2 O5

>  <HET>
 570  D 200      41

>  <HETNAM>
     570 2-(2-BENZOYL-PHENYLAMINO)-3-{4-[2-(5-METHYL-2-PHENYL-OX
   2 570 AZOL-4-YL)-ETHOXY]-PHENYL}-PROPIONIC ACID

>  <HETSYN>
     570 GI262570

>  <Name>
570.pdb

>  <RI>
0

>  <Rbt.Current_Directory>
/home/malgorzata/Desktop/rDOCK_IFD/Wyniki/14_ppar-gamma/IFD

>  <Rbt.Executable>
rbdock ($Id: //depot/dev/client3/rdock/2013.1/src/exe/rbdock.cxx#4 $)

>  <Rbt.Library>
libRbt.so (2013.1, Build901 2013/11/27)

>  <Rbt.Parameter_File>
/home/malgorzata/Desktop/rDock_2013.1_src/data/scripts/hard_docking.prm

>  <Rbt.Receptor>
cavity.prm

>  <SCORE>
25.7631

>  <SCORE.INTER>
-4.10175

>  <SCORE.INTER.CONST>
1

>  <SCORE.INTER.POLAR>
-1.10305

>  <SCORE.INTER.REPUL>
0

>  <SCORE.INTER.ROT>
12

>  <SCORE.INTER.VDW>
-17.7514

>  <SCORE.INTER.norm>
-0.100043

>  <SCORE.INTRA>
7.47604

>  <SCORE.INTRA.DIHEDRAL>
11.2255

>  <SCORE.INTRA.DIHEDRAL.0>
12.9748

>  <SCORE.INTRA.POLAR>
0.058673

>  <SCORE.INTRA.POLAR.0>
-0.058673

>  <SCORE.INTRA.REPUL>
0

>  <SCORE.INTRA.REPUL.0>
0

>  <SCORE.INTRA.VDW>
1.66382

>  <SCORE.INTRA.VDW.0>
-4.98062

>  <SCORE.INTRA.norm>
0.182342

>  <SCORE.RESTR>
23.0931

>  <SCORE.RESTR.CAVITY>
23.0931

>  <SCORE.RESTR.norm>
0.563246

>  <SCORE.SYSTEM>
-0.704268

>  <SCORE.SYSTEM.CONST>
0

>  <SCORE.SYSTEM.DIHEDRAL>
1.37791

>  <SCORE.SYSTEM.VDW>
-1.39322

>  <SCORE.SYSTEM.norm>
-0.0171773

>  <SCORE.heavy>
41

>  <SCORE.norm>
0.628369

$$$$
570.pdb
  rDOCK(R)          3D
libRbt.so/2013.1/901 2013/11/27
 43 47  0  0  0  0  0  0  0  0999 V2000
   47.5649  -45.5350   14.5657 N   0  0  0  0  0  0
   48.5028  -45.7632   15.7271 C   0  0  0  0  0  0
   47.9540  -45.2026   17.0764 C   0  0  0  0  0  0
   47.5434  -43.7266   17.0285 C   0  0  0  0  0  0
   47.1186  -43.0959   18.2438 C   0  0  0  0  0  0
   47.5762  -42.9793   15.8051 C   0  0  0  0  0  0
   46.7327  -41.7419   18.2483 C   0  0  0  0  0  0
   47.1907  -41.6195   15.7986 C   0  0  0  0  0  0
   46.7560  -40.9718   17.0421 C   0  0  0  0  0  0
   46.3428  -39.6126   17.1849 O   0  0  0  0  0  0
   46.1135  -45.6137   14.4212 C   0  0  0  0  0  0
   45.2774  -46.1844   15.4833 C   0  0  0  0  0  0
   43.8523  -46.2186   15.2523 C   0  0  0  0  0  0
   43.2829  -45.7267   14.0543 C   0  0  0  0  0  0
   44.1005  -45.1842   13.0464 C   0  0  0  0  0  0
   45.4848  -45.1251   13.2198 C   0  0  0  0  0  0
   45.5636  -46.2629   18.2890 C   0  0  0  0  0  0
   44.7373  -45.0983   18.5172 C   0  0  0  0  0  0
   44.5187  -44.6129   19.8388 C   0  0  0  0  0  0
   45.1203  -45.2823   20.9450 C   0  0  0  0  0  0
   45.9364  -46.4294   20.7295 C   0  0  0  0  0  0
   46.1555  -46.9142   19.4164 C   0  0  0  0  0  0
   45.7820  -46.7668   16.8706 C   0  0  0  0  0  0
   46.5266  -47.7674   16.8231 O   0  0  0  0  0  0
   47.2067  -35.4694   16.0745 O   0  0  0  0  0  0
   46.3946  -35.8048   14.9970 C   0  0  0  0  0  0
   45.4336  -36.7000   15.5232 N   0  0  0  0  0  0
   45.7163  -36.8615   16.8626 C   0  0  0  0  0  0
   46.8625  -36.0847   17.2589 C   0  0  0  0  0  0
   47.5314  -35.9641   18.6342 C   0  0  0  0  0  0
   46.4822  -35.3758   13.6729 C   0  0  0  0  0  0
   47.5039  -34.4615   13.2210 C   0  0  0  0  0  0
   47.5437  -34.0539   11.8623 C   0  0  0  0  0  0
   46.5786  -34.5426   10.9436 C   0  0  0  0  0  0
   45.5675  -35.4447   11.3733 C   0  0  0  0  0  0
   45.5163  -35.8583   12.7279 C   0  0  0  0  0  0
   44.9439  -39.2876   17.3710 C   0  0  0  0  0  0
   44.8451  -37.8013   17.7648 C   0  0  0  0  0  0
   48.3613  -48.0109   15.0336 O   0  0  0  0  0  0
   49.5960  -47.5860   16.8393 O   0  0  0  0  0  0
   48.8641  -47.2158   15.8643 C   0  0  0  0  0  0
   48.0270  -45.2807   13.7344 H   0  0  0  0  0  0
   49.8159  -48.4910   16.9429 H   0  0  0  0  0  0
  1  2  1  0  0  0
  1 11  1  0  0  0
  1 42  1  0  0  0
  2  3  1  0  0  0
  2 41  1  0  0  0
  3  4  1  0  0  0
  4  5  2  0  0  0
  4  6  1  0  0  0
  5  7  1  0  0  0
  6  8  2  0  0  0
  7  9  2  0  0  0
  8  9  1  0  0  0
  9 10  1  0  0  0
 10 37  1  0  0  0
 11 12  2  0  0  0
 11 16  1  0  0  0
 12 13  1  0  0  0
 12 23  1  0  0  0
 13 14  2  0  0  0
 14 15  1  0  0  0
 15 16  2  0  0  0
 17 18  2  0  0  0
 17 22  1  0  0  0
 17 23  1  0  0  0
 18 19  1  0  0  0
 19 20  2  0  0  0
 20 21  1  0  0  0
 21 22  2  0  0  0
 23 24  2  0  0  0
 25 26  1  0  0  0
 25 29  1  0  0  0
 26 27  2  0  0  0
 26 31  1  0  0  0
 27 28  1  0  0  0
 28 29  2  0  0  0
 28 38  1  0  0  0
 29 30  1  0  0  0
 31 32  2  0  0  0
 31 36  1  0  0  0
 32 33  1  0  0  0
 33 34  2  0  0  0
 34 35  1  0  0  0
 35 36  2  0  0  0
 37 38  1  0  0  0
 39 41  2  0  0  0
 40 41  1  0  0  0
 40 43  1  0  0  0
M  END
>  <CHROM.0>
58.90715476,-64.08060061,-179.31760892,25.94885064

>  <CHROM.1>
-40.02400698,-9.98834577,-53.53718200,-0.01545010,-175.54756288,-73.84884846
169.11900619,113.36310342,2.55066321,0.02079857,65.50514591,46.61484680,178.98751996
46.40136261,-41.98524194,16.10593055,-1.47141368,1.51963861,-0.32690786

>  <FORMUL>
      570    C34 H30 N2 O5

>  <HET>
 570  D 200      41

>  <HETNAM>
     570 2-(2-BENZOYL-PHENYLAMINO)-3-{4-[2-(5-METHYL-2-PHENYL-OX
   2 570 AZOL-4-YL)-ETHOXY]-PHENYL}-PROPIONIC ACID

>  <HETSYN>
     570 GI262570

>  <Name>
570.pdb

>  <RI>
0

>  <Rbt.Current_Directory>
/home/malgorzata/Desktop/rDOCK_IFD/Wyniki/14_ppar-gamma/IFD

>  <Rbt.Executable>
rbdock ($Id: //depot/dev/client3/rdock/2013.1/src/exe/rbdock.cxx#4 $)

>  <Rbt.Library>
libRbt.so (2013.1, Build901 2013/11/27)

>  <Rbt.Parameter_File>
/home/malgorzata/Desktop/rDock_2013.1_src/data/scripts/hard_docking.prm

>  <Rbt.Receptor>
cavity.prm

>  <SCORE>
0.203348

>  <SCORE.INTER>
-8.23566

>  <SCORE.INTER.CONST>
1

>  <SCORE.INTER.POLAR>
-0.663325

>  <SCORE.INTER.REPUL>
0.959166

>  <SCORE.INTER.ROT>
12

>  <SCORE.INTER.VDW>
-28.1762

>  <SCORE.INTER.norm>
-0.20087

>  <SCORE.INTRA>
6.54691

>  <SCORE.INTRA.DIHEDRAL>
7.82616

>  <SCORE.INTRA.DIHEDRAL.0>
12.9748

>  <SCORE.INTRA.POLAR>
0.058673

>  <SCORE.INTRA.POLAR.0>
-0.058673

>  <SCORE.INTRA.REPUL>
0

>  <SCORE.INTRA.REPUL.0>
0

>  <SCORE.INTRA.VDW>
2.43434

>  <SCORE.INTRA.VDW.0>
-4.98062

>  <SCORE.INTRA.norm>
0.159681

>  <SCORE.RESTR>
3.02593

>  <SCORE.RESTR.CAVITY>
3.02593

>  <SCORE.RESTR.norm>
0.0738032

>  <SCORE.SYSTEM>
-1.13383

>  <SCORE.SYSTEM.CONST>
0

>  <SCORE.SYSTEM.DIHEDRAL>
0.997219

>  <SCORE.SYSTEM.VDW>
-1.63244

>  <SCORE.SYSTEM.norm>
-0.0276545

>  <SCORE.heavy>
41

>  <SCORE.norm>
0.00495972

$$$$
570.pdb
  rDOCK(R)          3D
libRbt.so/2013.1/901 2013/11/27
 43 47  0  0  0  0  0  0  0  0999 V2000
   47.9787  -46.7225   18.0978 N   0  0  0  0  0  0
   48.8949  -46.6509   16.8993 C   0  0  0  0  0  0
   49.8732  -45.4359   16.9484 C   0  0  0  0  0  0
   49.1826  -44.0680   16.9860 C   0  0  0  0  0  0
   48.9797  -43.3709   15.7499 C   0  0  0  0  0  0
   48.7445  -43.4838   18.2202 C   0  0  0  0  0  0
   48.3494  -42.1121   15.7354 C   0  0  0  0  0  0
   48.1109  -42.2204   18.2167 C   0  0  0  0  0  0
   47.9016  -41.5054   16.9519 C   0  0  0  0  0  0
   47.2776  -40.2305   16.7973 O   0  0  0  0  0  0
   47.7638  -47.7291   19.1342 C   0  0  0  0  0  0
   46.8439  -47.4815   20.2502 C   0  0  0  0  0  0
   46.6940  -48.5355   21.2258 C   0  0  0  0  0  0
   47.4033  -49.7546   21.1159 C   0  0  0  0  0  0
   48.2821  -49.9738   20.0396 C   0  0  0  0  0  0
   48.4621  -48.9881   19.0670 C   0  0  0  0  0  0
   45.6510  -45.0224   19.5504 C   0  0  0  0  0  0
   45.6300  -43.6652   20.0491 C   0  0  0  0  0  0
   45.3194  -42.5791   19.1809 C   0  0  0  0  0  0
   45.0271  -42.8340   17.8086 C   0  0  0  0  0  0
   45.0443  -44.1675   17.3090 C   0  0  0  0  0  0
   45.3528  -45.2494   18.1701 C   0  0  0  0  0  0
   45.9879  -46.1675   20.4931 C   0  0  0  0  0  0
   45.5525  -45.9854   21.6487 O   0  0  0  0  0  0
   46.5289  -35.3188   16.1723 O   0  0  0  0  0  0
   47.3042  -35.7991   15.1229 C   0  0  0  0  0  0
   46.9528  -37.1639   14.9984 N   0  0  0  0  0  0
   46.0088  -37.4324   15.9663 C   0  0  0  0  0  0
   45.7101  -36.2635   16.7528 C   0  0  0  0  0  0
   44.7373  -36.1004   17.9277 C   0  0  0  0  0  0
   48.2376  -35.1149   14.3448 C   0  0  0  0  0  0
   49.3555  -35.7770   13.7155 C   0  0  0  0  0  0
   50.2787  -35.0309   12.9377 C   0  0  0  0  0  0
   50.1067  -33.6313   12.7770 C   0  0  0  0  0  0
   49.0101  -32.9655   13.3892 C   0  0  0  0  0  0
   48.0820  -33.6994   14.1694 C   0  0  0  0  0  0
   46.3615  -39.9911   15.7017 C   0  0  0  0  0  0
   45.3956  -38.8664   16.1213 C   0  0  0  0  0  0
   50.7349  -48.0575   17.3346 O   0  0  0  0  0  0
   49.2132  -48.8025   15.8872 O   0  0  0  0  0  0
   49.6532  -47.9349   16.7101 C   0  0  0  0  0  0
   47.4088  -45.9265   18.2020 H   0  0  0  0  0  0
   49.6822  -49.6028   15.7547 H   0  0  0  0  0  0
  1  2  1  0  0  0
  1 11  1  0  0  0
  1 42  1  0  0  0
  2  3  1  0  0  0
  2 41  1  0  0  0
  3  4  1  0  0  0
  4  5  2  0  0  0
  4  6  1  0  0  0
  5  7  1  0  0  0
  6  8  2  0  0  0
  7  9  2  0  0  0
  8  9  1  0  0  0
  9 10  1  0  0  0
 10 37  1  0  0  0
 11 12  2  0  0  0
 11 16  1  0  0  0
 12 13  1  0  0  0
 12 23  1  0  0  0
 13 14  2  0  0  0
 14 15  1  0  0  0
 15 16  2  0  0  0
 17 18  2  0  0  0
 17 22  1  0  0  0
 17 23  1  0  0  0
 18 19  1  0  0  0
 19 20  2  0  0  0
 20 21  1  0  0  0
 21 22  2  0  0  0
 23 24  2  0  0  0
 25 26  1  0  0  0
 25 29  1  0  0  0
 26 27  2  0  0  0
 26 31  1  0  0  0
 27 28  1  0  0  0
 28 29  2  0  0  0
 28 38  1  0  0  0
 29 30  1  0  0  0
 31 32  2  0  0  0
 31 36  1  0  0  0
 32 33  1  0  0  0
 33 34  2  0  0  0
 34 35  1  0  0  0
 35 36  2  0  0  0
 37 38  1  0  0  0
 39 41  2  0  0  0
 40 41  1  0  0  0
 40 43  1  0  0  0
M  END
>  <CHROM.0>
54.82858970,99.02846006,39.44397609,53.68274961

>  <CHROM.1>
-120.26147550,175.97227567,-60.49839350,-87.01212234,-94.71804178,41.06480280
154.33012997,15.38288459,-141.32535611,152.42574222,29.87070657,80.46461699
179.38341392,47.51734373,-42.27266254,17.20998353,-1.57388747,0.68303110
-0.33913383

>  <FORMUL>
      570    C34 H30 N2 O5

>  <HET>
 570  D 200      41

>  <HETNAM>
     570 2-(2-BENZOYL-PHENYLAMINO)-3-{4-[2-(5-METHYL-2-PHENYL-OX
   2 570 AZOL-4-YL)-ETHOXY]-PHENYL}-PROPIONIC ACID

>  <HETSYN>
     570 GI262570

>  <Name>
570.pdb

>  <RI>
0

>  <Rbt.Current_Directory>
/home/malgorzata/Desktop/rDOCK_IFD/Wyniki/14_ppar-gamma/IFD

>  <Rbt.Executable>
rbdock ($Id: //depot/dev/client3/rdock/2013.1/src/exe/rbdock.cxx#4 $)

>  <Rbt.Library>
libRbt.so (2013.1, Build901 2013/11/27)

>  <Rbt.Parameter_File>
/home/malgorzata/Desktop/rDock_2013.1_src/data/scripts/hard_docking.prm

>  <Rbt.Receptor>
cavity.prm

>  <SCORE>
27.9025

>  <SCORE.INTER>
10.7424

>  <SCORE.INTER.CONST>
1

>  <SCORE.INTER.POLAR>
-1.58714

>  <SCORE.INTER.REPUL>
0

>  <SCORE.INTER.ROT>
12

>  <SCORE.INTER.VDW>
-1.26131

>  <SCORE.INTER.norm>
0.26201

>  <SCORE.INTRA>
6.62123

>  <SCORE.INTRA.DIHEDRAL>
8.49908

>  <SCORE.INTRA.DIHEDRAL.0>
12.9748

>  <SCORE.INTRA.POLAR>
0.058673

>  <SCORE.INTRA.POLAR.0>
-0.058673

>  <SCORE.INTRA.REPUL>
0

>  <SCORE.INTRA.REPUL.0>
0

>  <SCORE.INTRA.VDW>
2.1722

>  <SCORE.INTRA.VDW.0>
-4.98062

>  <SCORE.INTRA.norm>
0.161493

>  <SCORE.RESTR>
7.20482

>  <SCORE.RESTR.CAVITY>
7.20482

>  <SCORE.RESTR.norm>
0.175727

>  <SCORE.SYSTEM>
3.33402

>  <SCORE.SYSTEM.CONST>
0

>  <SCORE.SYSTEM.DIHEDRAL>
10.3986

>  <SCORE.SYSTEM.VDW>
-1.8653

>  <SCORE.SYSTEM.norm>
0.0813176

>  <SCORE.heavy>
41

>  <SCORE.norm>
0.680548

$$$$
570.pdb
  rDOCK(R)          3D
libRbt.so/2013.1/901 2013/11/27
 43 47  0  0  0  0  0  0  0  0999 V2000
   47.7851  -46.2392   18.5684 N   0  0  0  0  0  0
   47.0480  -45.5329   19.6813 C   0  0  0  0  0  0
   45.7143  -44.8734   19.2100 C   0  0  0  0  0  0
   45.8980  -43.6589   18.2930 C   0  0  0  0  0  0
   46.7499  -43.7905   17.1475 C   0  0  0  0  0  0
   45.2416  -42.4123   18.5604 C   0  0  0  0  0  0
   46.9483  -42.7022   16.2767 C   0  0  0  0  0  0
   45.4342  -41.3135   17.6925 C   0  0  0  0  0  0
   46.3057  -41.4464   16.5188 C   0  0  0  0  0  0
   46.5895  -40.4276   15.5597 O   0  0  0  0  0  0
   49.1832  -46.6160   18.3758 C   0  0  0  0  0  0
   49.5915  -47.4551   17.2435 C   0  0  0  0  0  0
   50.9955  -47.7745   17.1337 C   0  0  0  0  0  0
   51.9395  -47.3032   18.0759 C   0  0  0  0  0  0
   51.5294  -46.5006   19.1560 C   0  0  0  0  0  0
   50.1837  -46.1603   19.3078 C   0  0  0  0  0  0
   47.4089  -48.9294   16.2322 C   0  0  0  0  0  0
   47.0166  -49.7621   15.1169 C   0  0  0  0  0  0
   45.8659  -50.5975   15.2060 C   0  0  0  0  0  0
   45.0954  -50.6117   16.4060 C   0  0  0  0  0  0
   45.4737  -49.7940   17.5089 C   0  0  0  0  0  0
   46.6174  -48.9623   17.4231 C   0  0  0  0  0  0
   48.6424  -48.0470   16.1177 C   0  0  0  0  0  0
   48.9630  -47.8167   14.9336 O   0  0  0  0  0  0
   48.3790  -35.1689   15.9389 O   0  0  0  0  0  0
   48.2457  -35.6886   14.6563 C   0  0  0  0  0  0
   47.5361  -36.9015   14.8209 N   0  0  0  0  0  0
   47.2910  -37.0514   16.1691 C   0  0  0  0  0  0
   47.8263  -35.9518   16.9297 C   0  0  0  0  0  0
   47.7939  -35.7051   18.4434 C   0  0  0  0  0  0
   48.7035  -35.1597   13.4498 C   0  0  0  0  0  0
   50.0451  -35.3826   12.9658 C   0  0  0  0  0  0
   50.4601  -34.8162   11.7325 C   0  0  0  0  0  0
   49.5580  -34.0278   10.9716 C   0  0  0  0  0  0
   48.2333  -33.8007   11.4344 C   0  0  0  0  0  0
   47.8072  -34.3598   12.6651 C   0  0  0  0  0  0
   45.8875  -39.1618   15.6058 C   0  0  0  0  0  0
   46.5212  -38.3021   16.7163 C   0  0  0  0  0  0
   45.6958  -46.3513   21.4292 O   0  0  0  0  0  0
   47.7350  -47.2281   21.2334 O   0  0  0  0  0  0
   46.8030  -46.4502   20.8467 C   0  0  0  0  0  0
   47.2034  -46.4992   17.8179 H   0  0  0  0  0  0
   48.5401  -47.2686   20.7557 H   0  0  0  0  0  0
  1  2  1  0  0  0
  1 11  1  0  0  0
  1 42  1  0  0  0
  2  3  1  0  0  0
  2 41  1  0  0  0
  3  4  1  0  0  0
  4  5  2  0  0  0
  4  6  1  0  0  0
  5  7  1  0  0  0
  6  8  2  0  0  0
  7  9  2  0  0  0
  8  9  1  0  0  0
  9 10  1  0  0  0
 10 37  1  0  0  0
 11 12  2  0  0  0
 11 16  1  0  0  0
 12 13  1  0  0  0
 12 23  1  0  0  0
 13 14  2  0  0  0
 14 15  1  0  0  0
 15 16  2  0  0  0
 17 18  2  0  0  0
 17 22  1  0  0  0
 17 23  1  0  0  0
 18 19  1  0  0  0
 19 20  2  0  0  0
 20 21  1  0  0  0
 21 22  2  0  0  0
 23 24  2  0  0  0
 25 26  1  0  0  0
 25 29  1  0  0  0
 26 27  2  0  0  0
 26 31  1  0  0  0
 27 28  1  0  0  0
 28 29  2  0  0  0
 28 38  1  0  0  0
 29 30  1  0  0  0
 31 32  2  0  0  0
 31 36  1  0  0  0
 32 33  1  0  0  0
 33 34  2  0  0  0
 34 35  1  0  0  0
 35 36  2  0  0  0
 37 38  1  0  0  0
 39 41  2  0  0  0
 40 41  1  0  0  0
 40 43  1  0  0  0
M  END
>  <CHROM.0>
-57.75384425,-67.09482533,-4.77200838,-3.44661387

>  <CHROM.1>
157.33644840,172.39503405,-69.68185118,-140.89527226,51.15316885,173.07673503
78.61995132,-56.61331049,-155.68731002,85.01215315,-9.93102619,111.87110632
-4.35454998,47.70806970,-42.68887773,16.67685167,1.68804637,-1.11714987,2.95261459

>  <FORMUL>
      570    C34 H30 N2 O5

>  <HET>
 570  D 200      41

>  <HETNAM>
     570 2-(2-BENZOYL-PHENYLAMINO)-3-{4-[2-(5-METHYL-2-PHENYL-OX
   2 570 AZOL-4-YL)-ETHOXY]-PHENYL}-PROPIONIC ACID

>  <HETSYN>
     570 GI262570

>  <Name>
570.pdb

>  <RI>
0

>  <Rbt.Current_Directory>
/home/malgorzata/Desktop/rDOCK_IFD/Wyniki/14_ppar-gamma/IFD

>  <Rbt.Executable>
rbdock ($Id: //depot/dev/client3/rdock/2013.1/src/exe/rbdock.cxx#4 $)

>  <Rbt.Library>
libRbt.so (2013.1, Build901 2013/11/27)

>  <Rbt.Parameter_File>
/home/malgorzata/Desktop/rDock_2013.1_src/data/scripts/hard_docking.prm

>  <Rbt.Receptor>
cavity.prm

>  <SCORE>
16.1236

>  <SCORE.INTER>
-12.8459

>  <SCORE.INTER.CONST>
1

>  <SCORE.INTER.POLAR>
-0.663325

>  <SCORE.INTER.REPUL>
0

>  <SCORE.INTER.ROT>
12

>  <SCORE.INTER.VDW>
-27.9906

>  <SCORE.INTER.norm>
-0.313315

>  <SCORE.INTRA>
14.6471

>  <SCORE.INTRA.DIHEDRAL>
24.3779

>  <SCORE.INTRA.DIHEDRAL.0>
12.9748

>  <SCORE.INTRA.POLAR>
0.058673

>  <SCORE.INTRA.POLAR.0>
-0.058673

>  <SCORE.INTRA.REPUL>
0

>  <SCORE.INTRA.REPUL.0>
0

>  <SCORE.INTRA.VDW>
2.25865

>  <SCORE.INTRA.VDW.0>
-4.98062

>  <SCORE.INTRA.norm>
0.357246

>  <SCORE.RESTR>
15.4314

>  <SCORE.RESTR.CAVITY>
15.4314

>  <SCORE.RESTR.norm>
0.376375

>  <SCORE.SYSTEM>
-1.10898

>  <SCORE.SYSTEM.CONST>
0

>  <SCORE.SYSTEM.DIHEDRAL>
0.324907

>  <SCORE.SYSTEM.VDW>
-1.27143

>  <SCORE.SYSTEM.norm>
-0.0270482

>  <SCORE.heavy>
41

>  <SCORE.norm>
0.393258

$$$$
570.pdb
  rDOCK(R)          3D
libRbt.so/2013.1/901 2013/11/27
 43 47  0  0  0  0  0  0  0  0999 V2000
   49.3266  -45.8624   14.7325 N   0  0  0  0  0  0
   48.0918  -46.7083   14.5315 C   0  0  0  0  0  0
   47.4308  -47.1551   15.8729 C   0  0  0  0  0  0
   47.0009  -45.9990   16.7828 C   0  0  0  0  0  0
   48.0053  -45.3260   17.5531 C   0  0  0  0  0  0
   45.6301  -45.5879   16.8746 C   0  0  0  0  0  0
   47.6574  -44.2583   18.4023 C   0  0  0  0  0  0
   45.2702  -44.5173   17.7243 C   0  0  0  0  0  0
   46.2974  -43.8265   18.5133 C   0  0  0  0  0  0
   46.0812  -42.7338   19.4065 O   0  0  0  0  0  0
   49.9045  -44.7437   13.9922 C   0  0  0  0  0  0
   49.7586  -44.6445   12.5355 C   0  0  0  0  0  0
   50.3619  -43.5023   11.8900 C   0  0  0  0  0  0
   51.0661  -42.5204   12.6257 C   0  0  0  0  0  0
   51.1968  -42.6327   14.0218 C   0  0  0  0  0  0
   50.6306  -43.7166   14.6959 C   0  0  0  0  0  0
   48.0222  -45.4189   10.4511 C   0  0  0  0  0  0
   47.3841  -46.5387    9.7954 C   0  0  0  0  0  0
   46.4664  -46.3254    8.7266 C   0  0  0  0  0  0
   46.1754  -44.9958    8.3010 C   0  0  0  0  0  0
   46.8000  -43.8870    8.9404 C   0  0  0  0  0  0
   47.7130  -44.0961   10.0033 C   0  0  0  0  0  0
   48.9966  -45.6680   11.5921 C   0  0  0  0  0  0
   49.1570  -46.8820   11.8336 O   0  0  0  0  0  0
   45.1974  -37.7998   16.4643 O   0  0  0  0  0  0
   46.5355  -37.7185   16.0956 C   0  0  0  0  0  0
   47.1000  -38.9583   16.4775 N   0  0  0  0  0  0
   46.0945  -39.7046   17.0536 C   0  0  0  0  0  0
   44.8458  -38.9872   17.0696 C   0  0  0  0  0  0
   43.4781  -39.4209   17.6123 C   0  0  0  0  0  0
   47.2086  -36.6602   15.4856 C   0  0  0  0  0  0
   46.5204  -35.6240   14.7531 C   0  0  0  0  0  0
   47.2558  -34.5720   14.1478 C   0  0  0  0  0  0
   48.6702  -34.5359   14.2594 C   0  0  0  0  0  0
   49.3618  -35.5483   14.9786 C   0  0  0  0  0  0
   48.6388  -36.6049   15.5866 C   0  0  0  0  0  0
   45.6107  -41.4594   18.9050 C   0  0  0  0  0  0
   46.3711  -41.1465   17.6020 C   0  0  0  0  0  0
   46.6036  -46.6820   12.7044 O   0  0  0  0  0  0
   46.8276  -44.7857   13.8530 O   0  0  0  0  0  0
   47.0891  -46.0162   13.6511 C   0  0  0  0  0  0
   49.8501  -46.1176   15.5263 H   0  0  0  0  0  0
   46.1684  -44.3570   13.3434 H   0  0  0  0  0  0
  1  2  1  0  0  0
  1 11  1  0  0  0
  1 42  1  0  0  0
  2  3  1  0  0  0
  2 41  1  0  0  0
  3  4  1  0  0  0
  4  5  2  0  0  0
  4  6  1  0  0  0
  5  7  1  0  0  0
  6  8  2  0  0  0
  7  9  2  0  0  0
  8  9  1  0  0  0
  9 10  1  0  0  0
 10 37  1  0  0  0
 11 12  2  0  0  0
 11 16  1  0  0  0
 12 13  1  0  0  0
 12 23  1  0  0  0
 13 14  2  0  0  0
 14 15  1  0  0  0
 15 16  2  0  0  0
 17 18  2  0  0  0
 17 22  1  0  0  0
 17 23  1  0  0  0
 18 19  1  0  0  0
 19 20  2  0  0  0
 20 21  1  0  0  0
 21 22  2  0  0  0
 23 24  2  0  0  0
 25 26  1  0  0  0
 25 29  1  0  0  0
 26 27  2  0  0  0
 26 31  1  0  0  0
 27 28  1  0  0  0
 28 29  2  0  0  0
 28 38  1  0  0  0
 29 30  1  0  0  0
 31 32  2  0  0  0
 31 36  1  0  0  0
 32 33  1  0  0  0
 33 34  2  0  0  0
 34 35  1  0  0  0
 35 36  2  0  0  0
 37 38  1  0  0  0
 39 41  2  0  0  0
 40 41  1  0  0  0
 40 43  1  0  0  0
M  END
>  <CHROM.0>
-174.54712210,-175.20028586,18.47325099,11.80415767

>  <CHROM.1>
-145.72107716,-32.10827578,58.78506572,131.34351183,-78.02304161,115.23861696
-42.34068196,135.16046549,-175.71274156,-20.40764489,141.92144441,-172.35677993
-176.44099123,47.47344607,-42.56418495,14.58193546,1.12300898,-1.26769364
-3.11903692

>  <FORMUL>
      570    C34 H30 N2 O5

>  <HET>
 570  D 200      41

>  <HETNAM>
     570 2-(2-BENZOYL-PHENYLAMINO)-3-{4-[2-(5-METHYL-2-PHENYL-OX
   2 570 AZOL-4-YL)-ETHOXY]-PHENYL}-PROPIONIC ACID

>  <HETSYN>
     570 GI262570

>  <Name>
570.pdb

>  <RI>
0

>  <Rbt.Current_Directory>
/home/malgorzata/Desktop/rDOCK_IFD/Wyniki/14_ppar-gamma/IFD

>  <Rbt.Executable>
rbdock ($Id: //depot/dev/client3/rdock/2013.1/src/exe/rbdock.cxx#4 $)

>  <Rbt.Library>
libRbt.so (2013.1, Build901 2013/11/27)

>  <Rbt.Parameter_File>
/home/malgorzata/Desktop/rDock_2013.1_src/data/scripts/hard_docking.prm

>  <Rbt.Receptor>
cavity.prm

>  <SCORE>
26.1113

>  <SCORE.INTER>
0.711432

>  <SCORE.INTER.CONST>
1

>  <SCORE.INTER.POLAR>
-0.173514

>  <SCORE.INTER.REPUL>
0.173621

>  <SCORE.INTER.ROT>
12

>  <SCORE.INTER.VDW>
-16.9667

>  <SCORE.INTER.norm>
0.017352

>  <SCORE.INTRA>
5.24004

>  <SCORE.INTRA.DIHEDRAL>
10.209

>  <SCORE.INTRA.DIHEDRAL.0>
12.9748

>  <SCORE.INTRA.POLAR>
0.058673

>  <SCORE.INTRA.POLAR.0>
-0.058673

>  <SCORE.INTRA.REPUL>
0

>  <SCORE.INTRA.REPUL.0>
0

>  <SCORE.INTRA.VDW>
-0.0639437

>  <SCORE.INTRA.VDW.0>
-4.98062

>  <SCORE.INTRA.norm>
0.127806

>  <SCORE.RESTR>
20.9816

>  <SCORE.RESTR.CAVITY>
20.9816

>  <SCORE.RESTR.norm>
0.511745

>  <SCORE.SYSTEM>
-0.821681

>  <SCORE.SYSTEM.CONST>
0

>  <SCORE.SYSTEM.DIHEDRAL>
0.928515

>  <SCORE.SYSTEM.VDW>
-1.28594

>  <SCORE.SYSTEM.norm>
-0.020041

>  <SCORE.heavy>
41

>  <SCORE.norm>
0.636862

$$$$
570.pdb
  rDOCK(R)          3D
libRbt.so/2013.1/901 2013/11/27
 43 47  0  0  0  0  0  0  0  0999 V2000
   49.1579  -45.3340   12.7649 N   0  0  0  0  0  0
   49.7620  -44.6360   13.9602 C   0  0  0  0  0  0
   49.5924  -45.4385   15.2880 C   0  0  0  0  0  0
   48.1380  -45.6191   15.7373 C   0  0  0  0  0  0
   47.1933  -44.5871   15.4247 C   0  0  0  0  0  0
   47.7153  -46.7860   16.4555 C   0  0  0  0  0  0
   45.8467  -44.7095   15.8167 C   0  0  0  0  0  0
   46.3658  -46.9187   16.8539 C   0  0  0  0  0  0
   45.3968  -45.8634   16.5342 C   0  0  0  0  0  0
   44.0090  -45.8634   16.8695 O   0  0  0  0  0  0
   48.6742  -44.8625   11.4698 C   0  0  0  0  0  0
   47.8528  -45.7223   10.6102 C   0  0  0  0  0  0
   47.4191  -45.1697    9.3486 C   0  0  0  0  0  0
   47.7705  -43.8577    8.9531 C   0  0  0  0  0  0
   48.5599  -43.0481    9.7899 C   0  0  0  0  0  0
   49.0042  -43.5329   11.0218 C   0  0  0  0  0  0
   48.1480  -48.5183   10.8459 C   0  0  0  0  0  0
   49.4946  -48.5336   10.3191 C   0  0  0  0  0  0
   50.2259  -49.7535   10.2352 C   0  0  0  0  0  0
   49.6235  -50.9690   10.6750 C   0  0  0  0  0  0
   48.2973  -50.9635   11.1941 C   0  0  0  0  0  0
   47.5679  -49.7519   11.2787 C   0  0  0  0  0  0
   47.3855  -47.2049   10.9298 C   0  0  0  0  0  0
   46.1895  -47.3607   11.2509 O   0  0  0  0  0  0
   47.0012  -43.2199   18.8093 O   0  0  0  0  0  0
   45.8793  -42.7087   18.1666 C   0  0  0  0  0  0
   44.9077  -43.7339   18.2479 N   0  0  0  0  0  0
   45.4861  -44.7927   18.9146 C   0  0  0  0  0  0
   46.8455  -44.5019   19.2910 C   0  0  0  0  0  0
   47.8611  -45.3791   20.0343 C   0  0  0  0  0  0
   45.7144  -41.4642   17.5591 C   0  0  0  0  0  0
   46.6392  -40.9541   16.5750 C   0  0  0  0  0  0
   46.4256  -39.6782   15.9917 C   0  0  0  0  0  0
   45.3030  -38.8989   16.3747 C   0  0  0  0  0  0
   44.3827  -39.3884   17.3413 C   0  0  0  0  0  0
   44.5857  -40.6606   17.9321 C   0  0  0  0  0  0
   43.5653  -46.3649   18.1535 C   0  0  0  0  0  0
   44.6868  -46.1144   19.1798 C   0  0  0  0  0  0
   51.8641  -43.8804   14.7111 O   0  0  0  0  0  0
   51.6836  -44.3803   12.5470 O   0  0  0  0  0  0
   51.2078  -44.2978   13.7261 C   0  0  0  0  0  0
   49.0724  -46.3077   12.8830 H   0  0  0  0  0  0
   51.1279  -44.6259   11.8336 H   0  0  0  0  0  0
  1  2  1  0  0  0
  1 11  1  0  0  0
  1 42  1  0  0  0
  2  3  1  0  0  0
  2 41  1  0  0  0
  3  4  1  0  0  0
  4  5  2  0  0  0
  4  6  1  0  0  0
  5  7  1  0  0  0
  6  8  2  0  0  0
  7  9  2  0  0  0
  8  9  1  0  0  0
  9 10  1  0  0  0
 10 37  1  0  0  0
 11 12  2  0  0  0
 11 16  1  0  0  0
 12 13  1  0  0  0
 12 23  1  0  0  0
 13 14  2  0  0  0
 14 15  1  0  0  0
 15 16  2  0  0  0
 17 18  2  0  0  0
 17 22  1  0  0  0
 17 23  1  0  0  0
 18 19  1  0  0  0
 19 20  2  0  0  0
 20 21  1  0  0  0
 21 22  2  0  0  0
 23 24  2  0  0  0
 25 26  1  0  0  0
 25 29  1  0  0  0
 26 27  2  0  0  0
 26 31  1  0  0  0
 27 28  1  0  0  0
 28 29  2  0  0  0
 28 38  1  0  0  0
 29 30  1  0  0  0
 31 32  2  0  0  0
 31 36  1  0  0  0
 32 33  1  0  0  0
 33 34  2  0  0  0
 34 35  1  0  0  0
 35 36  2  0  0  0
 37 38  1  0  0  0
 39 41  2  0  0  0
 40 41  1  0  0  0
 40 43  1  0  0  0
M  END
>  <CHROM.0>
-57.32925938,-177.21160110,4.09679960,-167.15084594

>  <CHROM.1>
156.73225544,-165.82905010,-64.24569115,-170.61666076,-31.74830621,-140.82821081
30.16982496,-77.99567338,-4.70310770,51.82530855,26.09235504,34.23090491
1.72911223,47.42466830,-45.01424469,14.59815475,-0.63318931,1.10605586,0.11222135

>  <FORMUL>
      570    C34 H30 N2 O5

>  <HET>
 570  D 200      41

>  <HETNAM>
     570 2-(2-BENZOYL-PHENYLAMINO)-3-{4-[2-(5-METHYL-2-PHENYL-OX
   2 570 AZOL-4-YL)-ETHOXY]-PHENYL}-PROPIONIC ACID

>  <HETSYN>
     570 GI262570

>  <Name>
570.pdb

>  <RI>
0

>  <Rbt.Current_Directory>
/home/malgorzata/Desktop/rDOCK_IFD/Wyniki/14_ppar-gamma/IFD

>  <Rbt.Executable>
rbdock ($Id: //depot/dev/client3/rdock/2013.1/src/exe/rbdock.cxx#4 $)

>  <Rbt.Library>
libRbt.so (2013.1, Build901 2013/11/27)

>  <Rbt.Parameter_File>
/home/malgorzata/Desktop/rDock_2013.1_src/data/scripts/hard_docking.prm

>  <Rbt.Receptor>
cavity.prm

>  <SCORE>
56.2407

>  <SCORE.INTER>
0.306501

>  <SCORE.INTER.CONST>
1

>  <SCORE.INTER.POLAR>
0

>  <SCORE.INTER.REPUL>
0.0893219

>  <SCORE.INTER.ROT>
12

>  <SCORE.INTER.VDW>
-17.5401

>  <SCORE.INTER.norm>
0.00747562

>  <SCORE.INTRA>
15.1164

>  <SCORE.INTRA.DIHEDRAL>
22.7611

>  <SCORE.INTRA.DIHEDRAL.0>
12.9748

>  <SCORE.INTRA.POLAR>
0.058673

>  <SCORE.INTRA.POLAR.0>
-0.058673

>  <SCORE.INTRA.REPUL>
0

>  <SCORE.INTRA.REPUL.0>
0

>  <SCORE.INTRA.VDW>
3.53636

>  <SCORE.INTRA.VDW.0>
-4.98062

>  <SCORE.INTRA.norm>
0.368693

>  <SCORE.RESTR>
41.8912

>  <SCORE.RESTR.CAVITY>
41.8912

>  <SCORE.RESTR.norm>
1.02174

>  <SCORE.SYSTEM>
-1.07346

>  <SCORE.SYSTEM.CONST>
0

>  <SCORE.SYSTEM.DIHEDRAL>
0.328002

>  <SCORE.SYSTEM.VDW>
-1.23747

>  <SCORE.SYSTEM.norm>
-0.0261821

>  <SCORE.heavy>
41

>  <SCORE.norm>
1.37172

$$$$
570.pdb
  rDOCK(R)          3D
libRbt.so/2013.1/901 2013/11/27
 43 47  0  0  0  0  0  0  0  0999 V2000
   47.0118  -45.4760   16.9388 N   0  0  0  0  0  0
   46.8937  -46.1755   15.6055 C   0  0  0  0  0  0
   46.0533  -45.3714   14.5648 C   0  0  0  0  0  0
   46.8805  -44.7188   13.4514 C   0  0  0  0  0  0
   47.8911  -43.7703   13.8177 C   0  0  0  0  0  0
   46.6609  -45.0371   12.0705 C   0  0  0  0  0  0
   48.6757  -43.1460   12.8295 C   0  0  0  0  0  0
   47.4430  -44.4158   11.0706 C   0  0  0  0  0  0
   48.4788  -43.4447   11.4436 C   0  0  0  0  0  0
   49.3409  -42.7450   10.5461 O   0  0  0  0  0  0
   47.2727  -45.9477   18.2964 C   0  0  0  0  0  0
   46.8986  -45.1400   19.4628 C   0  0  0  0  0  0
   47.1942  -45.6888   20.7654 C   0  0  0  0  0  0
   47.8197  -46.9488   20.9152 C   0  0  0  0  0  0
   48.1724  -47.7087   19.7852 C   0  0  0  0  0  0
   47.9070  -47.2254   18.5022 C   0  0  0  0  0  0
   46.2969  -42.5839   18.4313 C   0  0  0  0  0  0
   45.1840  -41.6776   18.2549 C   0  0  0  0  0  0
   45.2630  -40.6071   17.3180 C   0  0  0  0  0  0
   46.4503  -40.4290   16.5484 C   0  0  0  0  0  0
   47.5508  -41.3175   16.7147 C   0  0  0  0  0  0
   47.4750  -42.3828   17.6456 C   0  0  0  0  0  0
   46.1935  -43.7186   19.4389 C   0  0  0  0  0  0
   45.4746  -43.4308   20.4179 O   0  0  0  0  0  0
   50.9614  -46.4119    8.8162 O   0  0  0  0  0  0
   49.8280  -46.5799    9.6039 C   0  0  0  0  0  0
   49.9055  -45.5629   10.5844 N   0  0  0  0  0  0
   51.0636  -44.8540   10.3469 C   0  0  0  0  0  0
   51.7803  -45.3763    9.2121 C   0  0  0  0  0  0
   53.1054  -44.9097    8.5959 C   0  0  0  0  0  0
   48.8180  -47.5342    9.4853 C   0  0  0  0  0  0
   47.5308  -47.3826   10.1210 C   0  0  0  0  0  0
   46.5401  -48.3876    9.9709 C   0  0  0  0  0  0
   46.8121  -49.5455    9.1965 C   0  0  0  0  0  0
   48.0743  -49.7082    8.5633 C   0  0  0  0  0  0
   49.0723  -48.7122    8.7066 C   0  0  0  0  0  0
   50.6744  -42.3614   10.9604 C   0  0  0  0  0  0
   51.4724  -43.6456   11.2572 C   0  0  0  0  0  0
   48.2892  -47.4217   14.1727 O   0  0  0  0  0  0
   49.2794  -45.9423   15.5130 O   0  0  0  0  0  0
   48.2449  -46.5193   15.0438 C   0  0  0  0  0  0
   46.8873  -44.5012   16.8810 H   0  0  0  0  0  0
   49.1968  -45.3380   16.2244 H   0  0  0  0  0  0
  1  2  1  0  0  0
  1 11  1  0  0  0
  1 42  1  0  0  0
  2  3  1  0  0  0
  2 41  1  0  0  0
  3  4  1  0  0  0
  4  5  2  0  0  0
  4  6  1  0  0  0
  5  7  1  0  0  0
  6  8  2  0  0  0
  7  9  2  0  0  0
  8  9  1  0  0  0
  9 10  1  0  0  0
 10 37  1  0  0  0
 11 12  2  0  0  0
 11 16  1  0  0  0
 12 13  1  0  0  0
 12 23  1  0  0  0
 13 14  2  0  0  0
 14 15  1  0  0  0
 15 16  2  0  0  0
 17 18  2  0  0  0
 17 22  1  0  0  0
 17 23  1  0  0  0
 18 19  1  0  0  0
 19 20  2  0  0  0
 20 21  1  0  0  0
 21 22  2  0  0  0
 23 24  2  0  0  0
 25 26  1  0  0  0
 25 29  1  0  0  0
 26 27  2  0  0  0
 26 31  1  0  0  0
 27 28  1  0  0  0
 28 29  2  0  0  0
 28 38  1  0  0  0
 29 30  1  0  0  0
 31 32  2  0  0  0
 31 36  1  0  0  0
 32 33  1  0  0  0
 33 34  2  0  0  0
 34 35  1  0  0  0
 35 36  2  0  0  0
 37 38  1  0  0  0
 39 41  2  0  0  0
 40 41  1  0  0  0
 40 43  1  0  0  0
M  END
>  <CHROM.0>
68.76235382,177.63347089,25.66552768,19.87894324

>  <CHROM.1>
156.29212242,-159.21984094,106.63821605,159.57172036,-59.53682818,30.52075198
62.82101211,-32.16985805,151.97806742,-162.50585522,-76.97470674,32.78023141
2.52900123,48.13341445,-45.11533827,13.99915348,2.62791850,1.22301088,0.30685640

>  <FORMUL>
      570    C34 H30 N2 O5

>  <HET>
 570  D 200      41

>  <HETNAM>
     570 2-(2-BENZOYL-PHENYLAMINO)-3-{4-[2-(5-METHYL-2-PHENYL-OX
   2 570 AZOL-4-YL)-ETHOXY]-PHENYL}-PROPIONIC ACID

>  <HETSYN>
     570 GI262570

>  <Name>
570.pdb

>  <RI>
0

>  <Rbt.Current_Directory>
/home/malgorzata/Desktop/rDOCK_IFD/Wyniki/14_ppar-gamma/IFD

>  <Rbt.Executable>
rbdock ($Id: //depot/dev/client3/rdock/2013.1/src/exe/rbdock.cxx#4 $)

>  <Rbt.Library>
libRbt.so (2013.1, Build901 2013/11/27)

>  <Rbt.Parameter_File>
/home/malgorzata/Desktop/rDock_2013.1_src/data/scripts/hard_docking.prm

>  <Rbt.Receptor>
cavity.prm

>  <SCORE>
53.6254

>  <SCORE.INTER>
-4.63142

>  <SCORE.INTER.CONST>
1

>  <SCORE.INTER.POLAR>
0

>  <SCORE.INTER.REPUL>
0

>  <SCORE.INTER.ROT>
12

>  <SCORE.INTER.VDW>
-22.0314

>  <SCORE.INTER.norm>
-0.112961

>  <SCORE.INTRA>
6.9678

>  <SCORE.INTRA.DIHEDRAL>
10.5657

>  <SCORE.INTRA.DIHEDRAL.0>
12.9748

>  <SCORE.INTRA.POLAR>
0.058673

>  <SCORE.INTRA.POLAR.0>
-0.058673

>  <SCORE.INTRA.REPUL>
0

>  <SCORE.INTRA.REPUL.0>
0

>  <SCORE.INTRA.VDW>
1.48545

>  <SCORE.INTRA.VDW.0>
-4.98062

>  <SCORE.INTRA.norm>
0.169946

>  <SCORE.RESTR>
52.1251

>  <SCORE.RESTR.CAVITY>
52.1251

>  <SCORE.RESTR.norm>
1.27134

>  <SCORE.SYSTEM>
-0.836087

>  <SCORE.SYSTEM.CONST>
0

>  <SCORE.SYSTEM.DIHEDRAL>
1.83671

>  <SCORE.SYSTEM.VDW>
-1.75444

>  <SCORE.SYSTEM.norm>
-0.0203924

>  <SCORE.heavy>
41

>  <SCORE.norm>
1.30794

$$$$
