570.pdb
  rDOCK(R)          3D
libRbt.so/2013.1/901 2013/11/27
 43 47  0  0  0  0  0  0  0  0999 V2000
   52.6036  -34.9706   24.6165 N   0  0  0  0  0  0
   52.3955  -35.6301   25.9591 C   0  0  0  0  0  0
   52.2973  -37.1852   25.8686 C   0  0  0  0  0  0
   51.0813  -37.6985   25.0893 C   0  0  0  0  0  0
   50.3105  -36.7587   24.3292 C   0  0  0  0  0  0
   50.7083  -39.0830   25.1100 C   0  0  0  0  0  0
   49.1856  -37.1842   23.5974 C   0  0  0  0  0  0
   49.5806  -39.5206   24.3789 C   0  0  0  0  0  0
   48.7905  -38.5599   23.5995 C   0  0  0  0  0  0
   47.6348  -38.8579   22.8159 O   0  0  0  0  0  0
   53.5885  -35.1541   23.5535 C   0  0  0  0  0  0
   53.3313  -34.6709   22.1922 C   0  0  0  0  0  0
   54.3638  -34.8957   21.2080 C   0  0  0  0  0  0
   55.5714  -35.5550   21.5369 C   0  0  0  0  0  0
   55.8001  -36.0126   22.8473 C   0  0  0  0  0  0
   54.8352  -35.8190   23.8380 C   0  0  0  0  0  0
   51.3798  -33.8813   20.3139 C   0  0  0  0  0  0
   51.7825  -34.8363   19.3056 C   0  0  0  0  0  0
   51.1846  -34.8200   18.0124 C   0  0  0  0  0  0
   50.1805  -33.8532   17.7114 C   0  0  0  0  0  0
   49.7785  -32.9081   18.6979 C   0  0  0  0  0  0
   50.3713  -32.9220   19.9846 C   0  0  0  0  0  0
   52.0283  -33.9175   21.6893 C   0  0  0  0  0  0
   51.4491  -33.1829   22.5156 O   0  0  0  0  0  0
   46.4544  -40.1550   17.9784 O   0  0  0  0  0  0
   47.1769  -40.9952   18.8181 C   0  0  0  0  0  0
   47.0117  -40.4532   20.1145 N   0  0  0  0  0  0
   46.2208  -39.3311   19.9901 C   0  0  0  0  0  0
   45.8425  -39.0995   18.6199 C   0  0  0  0  0  0
   44.9836  -37.9785   18.0209 C   0  0  0  0  0  0
   47.9182  -42.1295   18.4882 C   0  0  0  0  0  0
   48.2431  -43.1507   19.4554 C   0  0  0  0  0  0
   49.0049  -44.2830   19.0662 C   0  0  0  0  0  0
   49.4509  -44.4145   17.7253 C   0  0  0  0  0  0
   49.1376  -43.4180   16.7612 C   0  0  0  0  0  0
   48.3786  -42.2819   17.1378 C   0  0  0  0  0  0
   47.0549  -37.8501   21.9528 C   0  0  0  0  0  0
   45.8365  -38.4705   21.2423 C   0  0  0  0  0  0
   54.3727  -34.4761   26.5178 O   0  0  0  0  0  0
   53.4254  -35.6951   28.1247 O   0  0  0  0  0  0
   53.4571  -35.2223   26.9420 C   0  0  0  0  0  0
   51.9382  -34.2731   24.4165 H   0  0  0  0  0  0
   54.0524  -35.4103   28.7602 H   0  0  0  0  0  0
  1  2  1  0  0  0
  1 11  1  0  0  0
  1 42  1  0  0  0
  2  3  1  0  0  0
  2 41  1  0  0  0
  3  4  1  0  0  0
  4  5  2  0  0  0
  4  6  1  0  0  0
  5  7  1  0  0  0
  6  8  2  0  0  0
  7  9  2  0  0  0
  8  9  1  0  0  0
  9 10  1  0  0  0
 10 37  1  0  0  0
 11 12  2  0  0  0
 11 16  1  0  0  0
 12 13  1  0  0  0
 12 23  1  0  0  0
 13 14  2  0  0  0
 14 15  1  0  0  0
 15 16  2  0  0  0
 17 18  2  0  0  0
 17 22  1  0  0  0
 17 23  1  0  0  0
 18 19  1  0  0  0
 19 20  2  0  0  0
 20 21  1  0  0  0
 21 22  2  0  0  0
 23 24  2  0  0  0
 25 26  1  0  0  0
 25 29  1  0  0  0
 26 27  2  0  0  0
 26 31  1  0  0  0
 27 28  1  0  0  0
 28 29  2  0  0  0
 28 38  1  0  0  0
 29 30  1  0  0  0
 31 32  2  0  0  0
 31 36  1  0  0  0
 32 33  1  0  0  0
 33 34  2  0  0  0
 34 35  1  0  0  0
 35 36  2  0  0  0
 37 38  1  0  0  0
 39 41  2  0  0  0
 40 41  1  0  0  0
 40 43  1  0  0  0
M  END
>  <CHROM.0>
-53.47447477,-172.99928182,84.24114803,39.04535757,-138.57734908,-179.73982601

>  <CHROM.1>
-54.02949636,161.29584516,-64.67021099,-3.40044077,11.17693953,8.21450762
179.74678344,-151.13108796,13.65282319,-158.70141146,61.82858083,-81.61154571
-176.48109552,50.33793270,-37.46477267,21.66998584,-0.01135198,0.96436450
2.32633743

>  <FORMUL>
      570    C34 H30 N2 O5

>  <HET>
 570  D 200      41

>  <HETNAM>
     570 2-(2-BENZOYL-PHENYLAMINO)-3-{4-[2-(5-METHYL-2-PHENYL-OX
   2 570 AZOL-4-YL)-ETHOXY]-PHENYL}-PROPIONIC ACID

>  <HETSYN>
     570 GI262570

>  <Name>
570.pdb

>  <RI>
2.53022e+07

>  <Rbt.Current_Directory>
/home/malgorzata/Desktop/rDOCK_IFD/Wyniki/14_ppar-gamma/IFD

>  <Rbt.Executable>
rbdock ($Id: //depot/dev/client3/rdock/2013.1/src/exe/rbdock.cxx#4 $)

>  <Rbt.Library>
libRbt.so (2013.1, Build901 2013/11/27)

>  <Rbt.Parameter_File>
/home/malgorzata/Desktop/rDock_2013.1_src/data/scripts/dock.prm

>  <Rbt.Receptor>
cavity.prm

>  <SCORE>
78.2257

>  <SCORE.INTER>
-15.584

>  <SCORE.INTER.CONST>
1

>  <SCORE.INTER.POLAR>
-0.056956

>  <SCORE.INTER.REPUL>
0.0374977

>  <SCORE.INTER.ROT>
12

>  <SCORE.INTER.VDW>
-32.9779

>  <SCORE.INTER.norm>
-0.380099

>  <SCORE.INTRA>
3.13506

>  <SCORE.INTRA.DIHEDRAL>
-0.0473684

>  <SCORE.INTRA.DIHEDRAL.0>
12.9748

>  <SCORE.INTRA.POLAR>
0.058673

>  <SCORE.INTRA.POLAR.0>
-0.058673

>  <SCORE.INTRA.REPUL>
0

>  <SCORE.INTRA.REPUL.0>
0

>  <SCORE.INTRA.VDW>
2.95925

>  <SCORE.INTRA.VDW.0>
-4.98062

>  <SCORE.INTRA.norm>
0.0764648

>  <SCORE.RESTR>
0

>  <SCORE.RESTR.CAVITY>
0

>  <SCORE.RESTR.norm>
0

>  <SCORE.SYSTEM>
90.6747

>  <SCORE.SYSTEM.CONST>
0

>  <SCORE.SYSTEM.DIHEDRAL>
5.5653

>  <SCORE.SYSTEM.POLAR>
-5.85404

>  <SCORE.SYSTEM.VDW>
107.796

>  <SCORE.SYSTEM.norm>
2.21158

>  <SCORE.heavy>
41

>  <SCORE.norm>
1.90794

$$$$
570.pdb
  rDOCK(R)          3D
libRbt.so/2013.1/901 2013/11/27
 43 47  0  0  0  0  0  0  0  0999 V2000
   53.6068  -35.5830   25.8615 N   0  0  0  0  0  0
   53.3761  -34.0913   25.9115 C   0  0  0  0  0  0
   52.4977  -33.5680   24.7323 C   0  0  0  0  0  0
   51.4224  -34.5521   24.2585 C   0  0  0  0  0  0
   51.6135  -35.2217   23.0054 C   0  0  0  0  0  0
   50.2458  -34.8081   25.0373 C   0  0  0  0  0  0
   50.6528  -36.1344   22.5300 C   0  0  0  0  0  0
   49.2751  -35.7224   24.5690 C   0  0  0  0  0  0
   49.4693  -36.4095   23.2864 C   0  0  0  0  0  0
   48.5789  -37.3547   22.6930 O   0  0  0  0  0  0
   53.2648  -36.6163   24.8874 C   0  0  0  0  0  0
   54.0588  -36.7981   23.6670 C   0  0  0  0  0  0
   53.6463  -37.8463   22.7635 C   0  0  0  0  0  0
   52.5243  -38.6632   23.0376 C   0  0  0  0  0  0
   51.7740  -38.4734   24.2123 C   0  0  0  0  0  0
   52.1312  -37.4752   25.1211 C   0  0  0  0  0  0
   55.5487  -35.0211   22.0600 C   0  0  0  0  0  0
   56.6987  -35.1982   21.2014 C   0  0  0  0  0  0
   56.9139  -34.3319   20.0909 C   0  0  0  0  0  0
   55.9865  -33.2818   19.8249 C   0  0  0  0  0  0
   54.8517  -33.0993   20.6659 C   0  0  0  0  0  0
   54.6352  -33.9592   21.7708 C   0  0  0  0  0  0
   55.3356  -35.9586   23.2387 C   0  0  0  0  0  0
   56.3660  -36.1117   23.9261 O   0  0  0  0  0  0
   46.3000  -37.2531   18.7331 O   0  0  0  0  0  0
   47.3820  -36.5030   19.1800 C   0  0  0  0  0  0
   47.5348  -36.8506   20.5429 N   0  0  0  0  0  0
   46.5506  -37.7677   20.8433 C   0  0  0  0  0  0
   45.7247  -38.0517   19.6981 C   0  0  0  0  0  0
   44.5210  -38.9944   19.5728 C   0  0  0  0  0  0
   48.1648  -35.5936   18.4694 C   0  0  0  0  0  0
   48.2867  -35.6344   17.0315 C   0  0  0  0  0  0
   49.1013  -34.6866   16.3591 C   0  0  0  0  0  0
   49.7999  -33.6966   17.0980 C   0  0  0  0  0  0
   49.6886  -33.6427   18.5142 C   0  0  0  0  0  0
   48.8791  -34.5844   19.1974 C   0  0  0  0  0  0
   47.3123  -37.6641   23.3232 C   0  0  0  0  0  0
   46.4194  -38.3695   22.2844 C   0  0  0  0  0  0
   51.5834  -33.9215   27.4315 O   0  0  0  0  0  0
   53.5252  -33.0232   28.0543 O   0  0  0  0  0  0
   52.7965  -33.6690   27.2325 C   0  0  0  0  0  0
   54.0868  -35.9307   26.6477 H   0  0  0  0  0  0
   54.4184  -32.8360   27.8416 H   0  0  0  0  0  0
  1  2  1  0  0  0
  1 11  1  0  0  0
  1 42  1  0  0  0
  2  3  1  0  0  0
  2 41  1  0  0  0
  3  4  1  0  0  0
  4  5  2  0  0  0
  4  6  1  0  0  0
  5  7  1  0  0  0
  6  8  2  0  0  0
  7  9  2  0  0  0
  8  9  1  0  0  0
  9 10  1  0  0  0
 10 37  1  0  0  0
 11 12  2  0  0  0
 11 16  1  0  0  0
 12 13  1  0  0  0
 12 23  1  0  0  0
 13 14  2  0  0  0
 14 15  1  0  0  0
 15 16  2  0  0  0
 17 18  2  0  0  0
 17 22  1  0  0  0
 17 23  1  0  0  0
 18 19  1  0  0  0
 19 20  2  0  0  0
 20 21  1  0  0  0
 21 22  2  0  0  0
 23 24  2  0  0  0
 25 26  1  0  0  0
 25 29  1  0  0  0
 26 27  2  0  0  0
 26 31  1  0  0  0
 27 28  1  0  0  0
 28 29  2  0  0  0
 28 38  1  0  0  0
 29 30  1  0  0  0
 31 32  2  0  0  0
 31 36  1  0  0  0
 32 33  1  0  0  0
 33 34  2  0  0  0
 34 35  1  0  0  0
 35 36  2  0  0  0
 37 38  1  0  0  0
 39 41  2  0  0  0
 40 41  1  0  0  0
 40 43  1  0  0  0
M  END
>  <CHROM.0>
85.06342764,-167.72595293,62.10405034,55.14623750,-126.61225028,-179.61202273

>  <CHROM.1>
5.51690833,78.85961933,33.41618188,-75.14945586,-106.83731457,-176.62664096
163.82646180,-114.99446205,-128.74166823,-23.33895401,9.76308383,-38.96695765
-1.58432513,51.15159056,-35.76060105,22.30918155,0.54320058,0.34990552,1.70526674

>  <FORMUL>
      570    C34 H30 N2 O5

>  <HET>
 570  D 200      41

>  <HETNAM>
     570 2-(2-BENZOYL-PHENYLAMINO)-3-{4-[2-(5-METHYL-2-PHENYL-OX
   2 570 AZOL-4-YL)-ETHOXY]-PHENYL}-PROPIONIC ACID

>  <HETSYN>
     570 GI262570

>  <Name>
570.pdb

>  <RI>
2.53022e+07

>  <Rbt.Current_Directory>
/home/malgorzata/Desktop/rDOCK_IFD/Wyniki/14_ppar-gamma/IFD

>  <Rbt.Executable>
rbdock ($Id: //depot/dev/client3/rdock/2013.1/src/exe/rbdock.cxx#4 $)

>  <Rbt.Library>
libRbt.so (2013.1, Build901 2013/11/27)

>  <Rbt.Parameter_File>
/home/malgorzata/Desktop/rDock_2013.1_src/data/scripts/dock.prm

>  <Rbt.Receptor>
cavity.prm

>  <SCORE>
92.1029

>  <SCORE.INTER>
-17.1238

>  <SCORE.INTER.CONST>
1

>  <SCORE.INTER.POLAR>
-0.74985

>  <SCORE.INTER.REPUL>
0

>  <SCORE.INTER.ROT>
12

>  <SCORE.INTER.VDW>
-31.9743

>  <SCORE.INTER.norm>
-0.417653

>  <SCORE.INTRA>
15.9393

>  <SCORE.INTRA.DIHEDRAL>
32.4872

>  <SCORE.INTRA.DIHEDRAL.0>
12.9748

>  <SCORE.INTRA.POLAR>
0.058673

>  <SCORE.INTRA.POLAR.0>
-0.058673

>  <SCORE.INTRA.REPUL>
0.080537

>  <SCORE.INTRA.REPUL.0>
0

>  <SCORE.INTRA.VDW>
-0.906511

>  <SCORE.INTRA.VDW.0>
-4.98062

>  <SCORE.INTRA.norm>
0.388763

>  <SCORE.RESTR>
0

>  <SCORE.RESTR.CAVITY>
0

>  <SCORE.RESTR.norm>
0

>  <SCORE.SYSTEM>
93.2874

>  <SCORE.SYSTEM.CONST>
0

>  <SCORE.SYSTEM.DIHEDRAL>
10.5239

>  <SCORE.SYSTEM.POLAR>
-5.74298

>  <SCORE.SYSTEM.REPUL>
0.0113993

>  <SCORE.SYSTEM.VDW>
107.495

>  <SCORE.SYSTEM.norm>
2.2753

>  <SCORE.heavy>
41

>  <SCORE.norm>
2.24641

$$$$
570.pdb
  rDOCK(R)          3D
libRbt.so/2013.1/901 2013/11/27
 43 47  0  0  0  0  0  0  0  0999 V2000
   52.9273  -37.4068   22.9119 N   0  0  0  0  0  0
   53.1866  -36.5318   21.7086 C   0  0  0  0  0  0
   52.4468  -35.1593   21.7790 C   0  0  0  0  0  0
   51.6712  -34.7922   20.5088 C   0  0  0  0  0  0
   50.2407  -34.7274   20.5766 C   0  0  0  0  0  0
   52.3447  -34.5183   19.2728 C   0  0  0  0  0  0
   49.4865  -34.3939   19.4356 C   0  0  0  0  0  0
   51.5969  -34.1827   18.1214 C   0  0  0  0  0  0
   50.1321  -34.1152   18.1890 C   0  0  0  0  0  0
   49.2526  -33.7888   17.1126 O   0  0  0  0  0  0
   51.7090  -37.8280   23.5989 C   0  0  0  0  0  0
   51.0627  -36.9626   24.5920 C   0  0  0  0  0  0
   49.8612  -37.4624   25.2180 C   0  0  0  0  0  0
   49.3282  -38.7319   24.8929 C   0  0  0  0  0  0
   49.9622  -39.5485   23.9390 C   0  0  0  0  0  0
   51.1258  -39.1122   23.3021 C   0  0  0  0  0  0
   52.9546  -34.9697   25.2315 C   0  0  0  0  0  0
   54.0914  -35.8602   25.1558 C   0  0  0  0  0  0
   55.4153  -35.3607   25.3228 C   0  0  0  0  0  0
   55.6195  -33.9705   25.5663 C   0  0  0  0  0  0
   54.5057  -33.0863   25.6435 C   0  0  0  0  0  0
   53.1882  -33.5803   25.4779 C   0  0  0  0  0  0
   51.5496  -35.5226   25.0475 C   0  0  0  0  0  0
   50.6631  -34.7042   25.3674 O   0  0  0  0  0  0
   46.9201  -37.7286   15.9343 O   0  0  0  0  0  0
   47.3795  -37.7984   17.2447 C   0  0  0  0  0  0
   48.5499  -37.0039   17.2687 N   0  0  0  0  0  0
   48.7366  -36.5132   15.9942 C   0  0  0  0  0  0
   47.7042  -36.9644   15.0971 C   0  0  0  0  0  0
   47.5155  -36.6751   13.6024 C   0  0  0  0  0  0
   46.8341  -38.4939   18.3235 C   0  0  0  0  0  0
   46.4502  -39.8827   18.2353 C   0  0  0  0  0  0
   45.8951  -40.5407   19.3636 C   0  0  0  0  0  0
   45.7144  -39.8352   20.5817 C   0  0  0  0  0  0
   46.0890  -38.4678   20.6844 C   0  0  0  0  0  0
   46.6433  -37.7992   19.5644 C   0  0  0  0  0  0
   49.6257  -34.0866   15.7454 C   0  0  0  0  0  0
   49.9558  -35.5888   15.6547 C   0  0  0  0  0  0
   55.4048  -36.3879   22.4911 O   0  0  0  0  0  0
   55.0766  -36.0442   20.3140 O   0  0  0  0  0  0
   54.6589  -36.3295   21.4834 C   0  0  0  0  0  0
   53.7489  -37.7678   23.3168 H   0  0  0  0  0  0
   54.4647  -35.9194   19.6154 H   0  0  0  0  0  0
  1  2  1  0  0  0
  1 11  1  0  0  0
  1 42  1  0  0  0
  2  3  1  0  0  0
  2 41  1  0  0  0
  3  4  1  0  0  0
  4  5  2  0  0  0
  4  6  1  0  0  0
  5  7  1  0  0  0
  6  8  2  0  0  0
  7  9  2  0  0  0
  8  9  1  0  0  0
  9 10  1  0  0  0
 10 37  1  0  0  0
 11 12  2  0  0  0
 11 16  1  0  0  0
 12 13  1  0  0  0
 12 23  1  0  0  0
 13 14  2  0  0  0
 14 15  1  0  0  0
 15 16  2  0  0  0
 17 18  2  0  0  0
 17 22  1  0  0  0
 17 23  1  0  0  0
 18 19  1  0  0  0
 19 20  2  0  0  0
 20 21  1  0  0  0
 21 22  2  0  0  0
 23 24  2  0  0  0
 25 26  1  0  0  0
 25 29  1  0  0  0
 26 27  2  0  0  0
 26 31  1  0  0  0
 27 28  1  0  0  0
 28 29  2  0  0  0
 28 38  1  0  0  0
 29 30  1  0  0  0
 31 32  2  0  0  0
 31 36  1  0  0  0
 32 33  1  0  0  0
 33 34  2  0  0  0
 34 35  1  0  0  0
 35 36  2  0  0  0
 37 38  1  0  0  0
 39 41  2  0  0  0
 40 41  1  0  0  0
 40 43  1  0  0  0
M  END
>  <CHROM.0>
74.55096937,62.02856271,67.79631491,20.20998049,99.34888933,-179.71693706

>  <CHROM.1>
49.90519138,-82.63622145,-131.04635941,-28.06842366,113.40530687,-151.12434705
55.18409929,-35.97423520,-8.53058309,48.98369341,-94.34677525,62.21696009
3.13244265,50.60331630,-36.38081592,20.81322263,0.73740432,0.62819725,1.92942896

>  <FORMUL>
      570    C34 H30 N2 O5

>  <HET>
 570  D 200      41

>  <HETNAM>
     570 2-(2-BENZOYL-PHENYLAMINO)-3-{4-[2-(5-METHYL-2-PHENYL-OX
   2 570 AZOL-4-YL)-ETHOXY]-PHENYL}-PROPIONIC ACID

>  <HETSYN>
     570 GI262570

>  <Name>
570.pdb

>  <RI>
2.53022e+07

>  <Rbt.Current_Directory>
/home/malgorzata/Desktop/rDOCK_IFD/Wyniki/14_ppar-gamma/IFD

>  <Rbt.Executable>
rbdock ($Id: //depot/dev/client3/rdock/2013.1/src/exe/rbdock.cxx#4 $)

>  <Rbt.Library>
libRbt.so (2013.1, Build901 2013/11/27)

>  <Rbt.Parameter_File>
/home/malgorzata/Desktop/rDock_2013.1_src/data/scripts/dock.prm

>  <Rbt.Receptor>
cavity.prm

>  <SCORE>
79.9627

>  <SCORE.INTER>
-19.0249

>  <SCORE.INTER.CONST>
1

>  <SCORE.INTER.POLAR>
-0.582077

>  <SCORE.INTER.REPUL>
0.0304905

>  <SCORE.INTER.ROT>
12

>  <SCORE.INTER.VDW>
-34.5983

>  <SCORE.INTER.norm>
-0.464021

>  <SCORE.INTRA>
10.6901

>  <SCORE.INTRA.DIHEDRAL>
23.6363

>  <SCORE.INTRA.DIHEDRAL.0>
12.9748

>  <SCORE.INTRA.POLAR>
0.058673

>  <SCORE.INTRA.POLAR.0>
-0.058673

>  <SCORE.INTRA.REPUL>
0

>  <SCORE.INTRA.REPUL.0>
0

>  <SCORE.INTRA.VDW>
-1.32757

>  <SCORE.INTRA.VDW.0>
-4.98062

>  <SCORE.INTRA.norm>
0.260734

>  <SCORE.RESTR>
0

>  <SCORE.RESTR.CAVITY>
0

>  <SCORE.RESTR.norm>
0

>  <SCORE.SYSTEM>
88.2975

>  <SCORE.SYSTEM.CONST>
0

>  <SCORE.SYSTEM.DIHEDRAL>
4.63459

>  <SCORE.SYSTEM.POLAR>
-6.29649

>  <SCORE.SYSTEM.VDW>
107.388

>  <SCORE.SYSTEM.norm>
2.1536

>  <SCORE.heavy>
41

>  <SCORE.norm>
1.95031

$$$$
570.pdb
  rDOCK(R)          3D
libRbt.so/2013.1/901 2013/11/27
 43 47  0  0  0  0  0  0  0  0999 V2000
   52.6506  -34.1831   21.4308 N   0  0  0  0  0  0
   51.4210  -34.2010   20.5540 C   0  0  0  0  0  0
   50.9566  -35.6435   20.1805 C   0  0  0  0  0  0
   50.1962  -35.7400   18.8531 C   0  0  0  0  0  0
   48.7828  -35.5003   18.8565 C   0  0  0  0  0  0
   50.8669  -36.0627   17.6274 C   0  0  0  0  0  0
   48.0428  -35.5775   17.6612 C   0  0  0  0  0  0
   50.1333  -36.1428   16.4219 C   0  0  0  0  0  0
   48.6860  -35.8971   16.4233 C   0  0  0  0  0  0
   47.8224  -35.9411   15.2872 O   0  0  0  0  0  0
   54.0829  -34.2101   21.1460 C   0  0  0  0  0  0
   55.0415  -34.7160   22.1350 C   0  0  0  0  0  0
   56.4370  -34.7059   21.7640 C   0  0  0  0  0  0
   56.8663  -34.2274   20.5038 C   0  0  0  0  0  0
   55.9329  -33.7448   19.5686 C   0  0  0  0  0  0
   54.5707  -33.7345   19.8759 C   0  0  0  0  0  0
   53.5940  -36.2245   24.0296 C   0  0  0  0  0  0
   53.0014  -37.1417   23.0816 C   0  0  0  0  0  0
   51.9677  -38.0346   23.4866 C   0  0  0  0  0  0
   51.5147  -38.0228   24.8388 C   0  0  0  0  0  0
   52.0919  -37.1221   25.7790 C   0  0  0  0  0  0
   53.1198  -36.2331   25.3789 C   0  0  0  0  0  0
   54.6984  -35.2814   23.5776 C   0  0  0  0  0  0
   55.3927  -34.8613   24.5260 O   0  0  0  0  0  0
   47.0337  -39.3382   11.5049 O   0  0  0  0  0  0
   47.4766  -39.9180   12.6884 C   0  0  0  0  0  0
   47.1198  -39.0012   13.7052 N   0  0  0  0  0  0
   46.5003  -37.9330   13.0927 C   0  0  0  0  0  0
   46.4293  -38.1098   11.6652 C   0  0  0  0  0  0
   45.8374  -37.1833   10.5954 C   0  0  0  0  0  0
   48.1364  -41.1332   12.8699 C   0  0  0  0  0  0
   48.3387  -42.0731   11.7930 C   0  0  0  0  0  0
   49.0132  -43.2981   12.0347 C   0  0  0  0  0  0
   49.4898  -43.6038   13.3361 C   0  0  0  0  0  0
   49.2995  -42.6877   14.4063 C   0  0  0  0  0  0
   48.6263  -41.4616   14.1779 C   0  0  0  0  0  0
   46.5633  -36.6536   15.3511 C   0  0  0  0  0  0
   45.9747  -36.7159   13.9286 C   0  0  0  0  0  0
   49.1440  -33.6129   20.7050 O   0  0  0  0  0  0
   50.5504  -32.5726   22.0853 O   0  0  0  0  0  0
   50.2929  -33.4247   21.1738 C   0  0  0  0  0  0
   52.4440  -34.1453   22.3927 H   0  0  0  0  0  0
   51.4398  -32.3650   22.2950 H   0  0  0  0  0  0
  1  2  1  0  0  0
  1 11  1  0  0  0
  1 42  1  0  0  0
  2  3  1  0  0  0
  2 41  1  0  0  0
  3  4  1  0  0  0
  4  5  2  0  0  0
  4  6  1  0  0  0
  5  7  1  0  0  0
  6  8  2  0  0  0
  7  9  2  0  0  0
  8  9  1  0  0  0
  9 10  1  0  0  0
 10 37  1  0  0  0
 11 12  2  0  0  0
 11 16  1  0  0  0
 12 13  1  0  0  0
 12 23  1  0  0  0
 13 14  2  0  0  0
 14 15  1  0  0  0
 15 16  2  0  0  0
 17 18  2  0  0  0
 17 22  1  0  0  0
 17 23  1  0  0  0
 18 19  1  0  0  0
 19 20  2  0  0  0
 20 21  1  0  0  0
 21 22  2  0  0  0
 23 24  2  0  0  0
 25 26  1  0  0  0
 25 29  1  0  0  0
 26 27  2  0  0  0
 26 31  1  0  0  0
 27 28  1  0  0  0
 28 29  2  0  0  0
 28 38  1  0  0  0
 29 30  1  0  0  0
 31 32  2  0  0  0
 31 36  1  0  0  0
 32 33  1  0  0  0
 33 34  2  0  0  0
 34 35  1  0  0  0
 35 36  2  0  0  0
 37 38  1  0  0  0
 39 41  2  0  0  0
 40 41  1  0  0  0
 40 43  1  0  0  0
M  END
>  <CHROM.0>
-59.79453691,55.30666063,83.13476557,26.44434440,59.38357166,-179.80395857

>  <CHROM.1>
86.52121840,-155.02593042,-152.84293955,-164.22942959,-85.80458347,-46.97348733
-170.94668174,43.35263708,24.28818452,-6.88254704,16.46957826,86.31045509
6.89371982,50.53399903,-36.82037820,18.24238504,0.75042827,-0.84807004,0.45977311

>  <FORMUL>
      570    C34 H30 N2 O5

>  <HET>
 570  D 200      41

>  <HETNAM>
     570 2-(2-BENZOYL-PHENYLAMINO)-3-{4-[2-(5-METHYL-2-PHENYL-OX
   2 570 AZOL-4-YL)-ETHOXY]-PHENYL}-PROPIONIC ACID

>  <HETSYN>
     570 GI262570

>  <Name>
570.pdb

>  <RI>
2.53022e+07

>  <Rbt.Current_Directory>
/home/malgorzata/Desktop/rDOCK_IFD/Wyniki/14_ppar-gamma/IFD

>  <Rbt.Executable>
rbdock ($Id: //depot/dev/client3/rdock/2013.1/src/exe/rbdock.cxx#4 $)

>  <Rbt.Library>
libRbt.so (2013.1, Build901 2013/11/27)

>  <Rbt.Parameter_File>
/home/malgorzata/Desktop/rDock_2013.1_src/data/scripts/dock.prm

>  <Rbt.Receptor>
cavity.prm

>  <SCORE>
71.1014

>  <SCORE.INTER>
-26.7233

>  <SCORE.INTER.CONST>
1

>  <SCORE.INTER.POLAR>
-2.21325

>  <SCORE.INTER.REPUL>
0

>  <SCORE.INTER.ROT>
12

>  <SCORE.INTER.VDW>
-36.5982

>  <SCORE.INTER.norm>
-0.651787

>  <SCORE.INTRA>
8.98987

>  <SCORE.INTRA.DIHEDRAL>
13.0894

>  <SCORE.INTRA.DIHEDRAL.0>
12.9748

>  <SCORE.INTRA.POLAR>
0.058673

>  <SCORE.INTRA.POLAR.0>
-0.058673

>  <SCORE.INTRA.REPUL>
0

>  <SCORE.INTRA.REPUL.0>
0

>  <SCORE.INTRA.VDW>
2.24568

>  <SCORE.INTRA.VDW.0>
-4.98062

>  <SCORE.INTRA.norm>
0.219265

>  <SCORE.RESTR>
0.0499998

>  <SCORE.RESTR.CAVITY>
0.0499998

>  <SCORE.RESTR.norm>
0.00121951

>  <SCORE.SYSTEM>
88.7848

>  <SCORE.SYSTEM.CONST>
0

>  <SCORE.SYSTEM.DIHEDRAL>
1.46132

>  <SCORE.SYSTEM.POLAR>
-5.92117

>  <SCORE.SYSTEM.VDW>
108.186

>  <SCORE.SYSTEM.norm>
2.16548

>  <SCORE.heavy>
41

>  <SCORE.norm>
1.73418

$$$$
570.pdb
  rDOCK(R)          3D
libRbt.so/2013.1/901 2013/11/27
 43 47  0  0  0  0  0  0  0  0999 V2000
   52.9817  -34.8845   21.0062 N   0  0  0  0  0  0
   53.3244  -33.7889   20.0248 C   0  0  0  0  0  0
   52.0711  -33.0144   19.5098 C   0  0  0  0  0  0
   51.3687  -33.6695   18.3152 C   0  0  0  0  0  0
   49.9419  -33.5665   18.2210 C   0  0  0  0  0  0
   52.1059  -34.3741   17.3070 C   0  0  0  0  0  0
   49.2537  -34.1520   17.1414 C   0  0  0  0  0  0
   51.4246  -34.9657   16.2192 C   0  0  0  0  0  0
   49.9637  -34.8607   16.1206 C   0  0  0  0  0  0
   49.1476  -35.4038   15.0826 O   0  0  0  0  0  0
   51.7183  -35.4266   21.4995 C   0  0  0  0  0  0
   51.6882  -36.3820   22.6127 C   0  0  0  0  0  0
   50.3929  -36.8621   23.0331 C   0  0  0  0  0  0
   49.2020  -36.4347   22.4004 C   0  0  0  0  0  0
   49.2503  -35.5190   21.3337 C   0  0  0  0  0  0
   50.4771  -35.0217   20.8890 C   0  0  0  0  0  0
   54.2498  -36.2647   23.7895 C   0  0  0  0  0  0
   54.2511  -34.8712   24.1761 C   0  0  0  0  0  0
   55.4662  -34.2209   24.5376 C   0  0  0  0  0  0
   56.6906  -34.9517   24.5178 C   0  0  0  0  0  0
   56.6989  -36.3240   24.1373 C   0  0  0  0  0  0
   55.4922  -36.9732   23.7773 C   0  0  0  0  0  0
   52.9414  -36.9410   23.4099 C   0  0  0  0  0  0
   52.9037  -38.1425   23.7462 O   0  0  0  0  0  0
   46.2162  -39.4009   17.8324 O   0  0  0  0  0  0
   47.2615  -40.3119   17.7306 C   0  0  0  0  0  0
   48.1481  -39.7524   16.7806 N   0  0  0  0  0  0
   47.5974  -38.5606   16.3606 C   0  0  0  0  0  0
   46.3414  -38.2985   17.0146 C   0  0  0  0  0  0
   45.3870  -37.1083   16.8534 C   0  0  0  0  0  0
   47.4293  -41.5242   18.3995 C   0  0  0  0  0  0
   48.6645  -42.2698   18.3531 C   0  0  0  0  0  0
   48.7791  -43.5012   19.0493 C   0  0  0  0  0  0
   47.6794  -44.0042   19.7921 C   0  0  0  0  0  0
   46.4571  -43.2806   19.8485 C   0  0  0  0  0  0
   46.3298  -42.0503   19.1565 C   0  0  0  0  0  0
   47.9648  -36.1736   15.4074 C   0  0  0  0  0  0
   48.3192  -37.6687   15.2930 C   0  0  0  0  0  0
   54.0723  -31.6123   20.5312 O   0  0  0  0  0  0
   55.4358  -33.2963   21.0514 O   0  0  0  0  0  0
   54.3381  -32.8372   20.5958 C   0  0  0  0  0  0
   53.7731  -35.3239   21.3932 H   0  0  0  0  0  0
   56.0109  -32.7389   21.5379 H   0  0  0  0  0  0
  1  2  1  0  0  0
  1 11  1  0  0  0
  1 42  1  0  0  0
  2  3  1  0  0  0
  2 41  1  0  0  0
  3  4  1  0  0  0
  4  5  2  0  0  0
  4  6  1  0  0  0
  5  7  1  0  0  0
  6  8  2  0  0  0
  7  9  2  0  0  0
  8  9  1  0  0  0
  9 10  1  0  0  0
 10 37  1  0  0  0
 11 12  2  0  0  0
 11 16  1  0  0  0
 12 13  1  0  0  0
 12 23  1  0  0  0
 13 14  2  0  0  0
 14 15  1  0  0  0
 15 16  2  0  0  0
 17 18  2  0  0  0
 17 22  1  0  0  0
 17 23  1  0  0  0
 18 19  1  0  0  0
 19 20  2  0  0  0
 20 21  1  0  0  0
 21 22  2  0  0  0
 23 24  2  0  0  0
 25 26  1  0  0  0
 25 29  1  0  0  0
 26 27  2  0  0  0
 26 31  1  0  0  0
 27 28  1  0  0  0
 28 29  2  0  0  0
 28 38  1  0  0  0
 29 30  1  0  0  0
 31 32  2  0  0  0
 31 36  1  0  0  0
 32 33  1  0  0  0
 33 34  2  0  0  0
 34 35  1  0  0  0
 35 36  2  0  0  0
 37 38  1  0  0  0
 39 41  2  0  0  0
 40 41  1  0  0  0
 40 43  1  0  0  0
M  END
>  <CHROM.0>
70.85317541,70.64774041,71.73238258,55.32486328,133.88227511,-179.72645380

>  <CHROM.1>
5.00867825,-171.15241332,-85.23294026,-129.48386583,145.48747895,-48.66227379
-99.41584003,34.80398407,37.33732326,-170.02785725,-153.50096714,144.25170644
-169.69054294,50.73426622,-36.74906261,19.79972326,0.14433573,-0.79130633
-0.63806824

>  <FORMUL>
      570    C34 H30 N2 O5

>  <HET>
 570  D 200      41

>  <HETNAM>
     570 2-(2-BENZOYL-PHENYLAMINO)-3-{4-[2-(5-METHYL-2-PHENYL-OX
   2 570 AZOL-4-YL)-ETHOXY]-PHENYL}-PROPIONIC ACID

>  <HETSYN>
     570 GI262570

>  <Name>
570.pdb

>  <RI>
2.53022e+07

>  <Rbt.Current_Directory>
/home/malgorzata/Desktop/rDOCK_IFD/Wyniki/14_ppar-gamma/IFD

>  <Rbt.Executable>
rbdock ($Id: //depot/dev/client3/rdock/2013.1/src/exe/rbdock.cxx#4 $)

>  <Rbt.Library>
libRbt.so (2013.1, Build901 2013/11/27)

>  <Rbt.Parameter_File>
/home/malgorzata/Desktop/rDock_2013.1_src/data/scripts/dock.prm

>  <Rbt.Receptor>
cavity.prm

>  <SCORE>
85.7584

>  <SCORE.INTER>
-16.9637

>  <SCORE.INTER.CONST>
1

>  <SCORE.INTER.POLAR>
-0.782203

>  <SCORE.INTER.REPUL>
0

>  <SCORE.INTER.ROT>
12

>  <SCORE.INTER.VDW>
-31.7042

>  <SCORE.INTER.norm>
-0.413748

>  <SCORE.INTRA>
11.6986

>  <SCORE.INTRA.DIHEDRAL>
16.2529

>  <SCORE.INTRA.DIHEDRAL.0>
12.9748

>  <SCORE.INTRA.POLAR>
0.058673

>  <SCORE.INTRA.POLAR.0>
-0.058673

>  <SCORE.INTRA.REPUL>
0

>  <SCORE.INTRA.REPUL.0>
0

>  <SCORE.INTRA.VDW>
3.3726

>  <SCORE.INTRA.VDW.0>
-4.98062

>  <SCORE.INTRA.norm>
0.285331

>  <SCORE.RESTR>
0

>  <SCORE.RESTR.CAVITY>
0

>  <SCORE.RESTR.norm>
0

>  <SCORE.SYSTEM>
91.0235

>  <SCORE.SYSTEM.CONST>
0

>  <SCORE.SYSTEM.DIHEDRAL>
7.90295

>  <SCORE.SYSTEM.POLAR>
-5.90055

>  <SCORE.SYSTEM.VDW>
107.134

>  <SCORE.SYSTEM.norm>
2.22008

>  <SCORE.heavy>
41

>  <SCORE.norm>
2.09167

$$$$
570.pdb
  rDOCK(R)          3D
libRbt.so/2013.1/901 2013/11/27
 43 47  0  0  0  0  0  0  0  0999 V2000
   47.6628  -36.1954   16.9319 N   0  0  0  0  0  0
   48.9845  -35.4647   16.9382 C   0  0  0  0  0  0
   50.1395  -36.2942   17.5815 C   0  0  0  0  0  0
   51.1599  -35.4589   18.3629 C   0  0  0  0  0  0
   52.0274  -36.1291   19.2867 C   0  0  0  0  0  0
   51.2571  -34.0390   18.1873 C   0  0  0  0  0  0
   52.9804  -35.4032   20.0261 C   0  0  0  0  0  0
   52.2103  -33.3008   18.9249 C   0  0  0  0  0  0
   53.1000  -33.9854   19.8709 C   0  0  0  0  0  0
   54.1058  -33.3719   20.6772 O   0  0  0  0  0  0
   47.0615  -37.1835   17.8238 C   0  0  0  0  0  0
   47.1466  -38.6186   17.5304 C   0  0  0  0  0  0
   46.5241  -39.5206   18.4706 C   0  0  0  0  0  0
   45.8577  -39.0457   19.6246 C   0  0  0  0  0  0
   45.7851  -37.6660   19.8890 C   0  0  0  0  0  0
   46.3722  -36.7504   19.0132 C   0  0  0  0  0  0
   48.4985  -40.6573   16.1248 C   0  0  0  0  0  0
   48.4467  -41.6002   17.2200 C   0  0  0  0  0  0
   49.0350  -42.8916   17.0925 C   0  0  0  0  0  0
   49.6799  -43.2561   15.8740 C   0  0  0  0  0  0
   49.7367  -42.3335   14.7906 C   0  0  0  0  0  0
   49.1526  -41.0487   14.9146 C   0  0  0  0  0  0
   47.8617  -39.2848   16.2802 C   0  0  0  0  0  0
   47.9886  -38.5756   15.2609 O   0  0  0  0  0  0
   53.7167  -37.2576   23.9220 O   0  0  0  0  0  0
   52.4611  -36.7382   23.6277 C   0  0  0  0  0  0
   52.6962  -35.3956   23.2484 N   0  0  0  0  0  0
   54.0541  -35.1771   23.3405 C   0  0  0  0  0  0
   54.7515  -36.3582   23.7795 C   0  0  0  0  0  0
   56.2507  -36.5716   24.0250 C   0  0  0  0  0  0
   51.2201  -37.3717   23.6874 C   0  0  0  0  0  0
   51.0606  -38.7174   24.1850 C   0  0  0  0  0  0
   49.7743  -39.3158   24.2191 C   0  0  0  0  0  0
   48.6407  -38.5938   23.7631 C   0  0  0  0  0  0
   48.7816  -37.2674   23.2719 C   0  0  0  0  0  0
   50.0611  -36.6592   23.2315 C   0  0  0  0  0  0
   53.8047  -32.9500   22.0294 C   0  0  0  0  0  0
   54.6729  -33.7792   22.9951 C   0  0  0  0  0  0
   49.3781  -35.8737   14.6510 O   0  0  0  0  0  0
   49.7207  -33.7960   15.3799 O   0  0  0  0  0  0
   49.3657  -35.0065   15.5583 C   0  0  0  0  0  0
   47.0879  -35.9564   16.1692 H   0  0  0  0  0  0
   49.7189  -33.1962   16.0999 H   0  0  0  0  0  0
  1  2  1  0  0  0
  1 11  1  0  0  0
  1 42  1  0  0  0
  2  3  1  0  0  0
  2 41  1  0  0  0
  3  4  1  0  0  0
  4  5  2  0  0  0
  4  6  1  0  0  0
  5  7  1  0  0  0
  6  8  2  0  0  0
  7  9  2  0  0  0
  8  9  1  0  0  0
  9 10  1  0  0  0
 10 37  1  0  0  0
 11 12  2  0  0  0
 11 16  1  0  0  0
 12 13  1  0  0  0
 12 23  1  0  0  0
 13 14  2  0  0  0
 14 15  1  0  0  0
 15 16  2  0  0  0
 17 18  2  0  0  0
 17 22  1  0  0  0
 17 23  1  0  0  0
 18 19  1  0  0  0
 19 20  2  0  0  0
 20 21  1  0  0  0
 21 22  2  0  0  0
 23 24  2  0  0  0
 25 26  1  0  0  0
 25 29  1  0  0  0
 26 27  2  0  0  0
 26 31  1  0  0  0
 27 28  1  0  0  0
 28 29  2  0  0  0
 28 38  1  0  0  0
 29 30  1  0  0  0
 31 32  2  0  0  0
 31 36  1  0  0  0
 32 33  1  0  0  0
 33 34  2  0  0  0
 34 35  1  0  0  0
 35 36  2  0  0  0
 37 38  1  0  0  0
 39 41  2  0  0  0
 40 41  1  0  0  0
 40 43  1  0  0  0
M  END
>  <CHROM.0>
68.15811760,66.30104824,-22.12357369,50.06963774,-27.64023499,-179.71125664

>  <CHROM.1>
30.86619748,-96.44815967,-145.01759718,-53.30282072,162.85020103,-86.74962097
116.22372180,152.27006774,2.96171194,4.62798637,-24.56581254,-83.74550463
-1.72979391,50.36219960,-37.12740769,19.52004301,-2.80010880,0.92263449,2.18676024

>  <FORMUL>
      570    C34 H30 N2 O5

>  <HET>
 570  D 200      41

>  <HETNAM>
     570 2-(2-BENZOYL-PHENYLAMINO)-3-{4-[2-(5-METHYL-2-PHENYL-OX
   2 570 AZOL-4-YL)-ETHOXY]-PHENYL}-PROPIONIC ACID

>  <HETSYN>
     570 GI262570

>  <Name>
570.pdb

>  <RI>
2.53022e+07

>  <Rbt.Current_Directory>
/home/malgorzata/Desktop/rDOCK_IFD/Wyniki/14_ppar-gamma/IFD

>  <Rbt.Executable>
rbdock ($Id: //depot/dev/client3/rdock/2013.1/src/exe/rbdock.cxx#4 $)

>  <Rbt.Library>
libRbt.so (2013.1, Build901 2013/11/27)

>  <Rbt.Parameter_File>
/home/malgorzata/Desktop/rDock_2013.1_src/data/scripts/dock.prm

>  <Rbt.Receptor>
cavity.prm

>  <SCORE>
90.9026

>  <SCORE.INTER>
-11.7556

>  <SCORE.INTER.CONST>
1

>  <SCORE.INTER.POLAR>
0

>  <SCORE.INTER.REPUL>
0.00698568

>  <SCORE.INTER.ROT>
12

>  <SCORE.INTER.VDW>
-29.1905

>  <SCORE.INTER.norm>
-0.286722

>  <SCORE.INTRA>
12.9719

>  <SCORE.INTRA.DIHEDRAL>
26.4533

>  <SCORE.INTRA.DIHEDRAL.0>
12.9748

>  <SCORE.INTRA.POLAR>
0.058673

>  <SCORE.INTRA.POLAR.0>
-0.058673

>  <SCORE.INTRA.REPUL>
0

>  <SCORE.INTRA.REPUL.0>
0

>  <SCORE.INTRA.VDW>
-0.454299

>  <SCORE.INTRA.VDW.0>
-4.98062

>  <SCORE.INTRA.norm>
0.316387

>  <SCORE.RESTR>
0

>  <SCORE.RESTR.CAVITY>
0

>  <SCORE.RESTR.norm>
0

>  <SCORE.SYSTEM>
89.6864

>  <SCORE.SYSTEM.CONST>
0

>  <SCORE.SYSTEM.DIHEDRAL>
5.76172

>  <SCORE.SYSTEM.POLAR>
-6.30571

>  <SCORE.SYSTEM.REPUL>
0.0248255

>  <SCORE.SYSTEM.VDW>
108.121

>  <SCORE.SYSTEM.norm>
2.18747

>  <SCORE.heavy>
41

>  <SCORE.norm>
2.21714

$$$$
570.pdb
  rDOCK(R)          3D
libRbt.so/2013.1/901 2013/11/27
 43 47  0  0  0  0  0  0  0  0999 V2000
   52.9651  -32.8254   21.2152 N   0  0  0  0  0  0
   51.9768  -32.8566   20.0736 C   0  0  0  0  0  0
   52.1850  -34.0720   19.1168 C   0  0  0  0  0  0
   50.8875  -34.6704   18.5619 C   0  0  0  0  0  0
   50.0527  -35.4299   19.4459 C   0  0  0  0  0  0
   50.5030  -34.4859   17.1928 C   0  0  0  0  0  0
   48.8515  -35.9982   18.9809 C   0  0  0  0  0  0
   49.2992  -35.0523   16.7158 C   0  0  0  0  0  0
   48.4427  -35.8298   17.6196 C   0  0  0  0  0  0
   47.2050  -36.4545   17.2786 O   0  0  0  0  0  0
   54.2017  -33.5533   21.4882 C   0  0  0  0  0  0
   54.4867  -34.0858   22.8254 C   0  0  0  0  0  0
   55.7334  -34.7932   23.0001 C   0  0  0  0  0  0
   56.6448  -34.9655   21.9320 C   0  0  0  0  0  0
   56.3552  -34.4469   20.6568 C   0  0  0  0  0  0
   55.1623  -33.7563   20.4330 C   0  0  0  0  0  0
   53.8189  -34.3525   25.5535 C   0  0  0  0  0  0
   52.7650  -34.2163   26.5343 C   0  0  0  0  0  0
   52.9906  -34.5747   27.8947 C   0  0  0  0  0  0
   54.2670  -35.0720   28.2910 C   0  0  0  0  0  0
   55.3111  -35.2083   27.3321 C   0  0  0  0  0  0
   55.0896  -34.8527   25.9788 C   0  0  0  0  0  0
   53.5566  -33.9672   24.1057 C   0  0  0  0  0  0
   52.3965  -33.5454   23.9211 O   0  0  0  0  0  0
   45.0611  -38.5920   20.8100 O   0  0  0  0  0  0
   46.3725  -38.1383   20.8952 C   0  0  0  0  0  0
   46.8242  -38.0604   19.5567 N   0  0  0  0  0  0
   45.7847  -38.4718   18.7503 C   0  0  0  0  0  0
   44.6246  -38.8307   19.5245 C   0  0  0  0  0  0
   43.2573  -39.3426   19.0536 C   0  0  0  0  0  0
   47.1137  -37.8239   22.0339 C   0  0  0  0  0  0
   46.8382  -38.4108   23.3237 C   0  0  0  0  0  0
   47.6216  -38.0513   24.4512 C   0  0  0  0  0  0
   48.6773  -37.1127   24.3147 C   0  0  0  0  0  0
   48.9616  -36.5274   23.0509 C   0  0  0  0  0  0
   48.1857  -36.8773   21.9176 C   0  0  0  0  0  0
   47.1900  -37.7739   16.6818 C   0  0  0  0  0  0
   45.9401  -38.5167   17.1914 C   0  0  0  0  0  0
   50.3382  -33.2928   21.7101 O   0  0  0  0  0  0
   49.6452  -32.3581   19.8097 O   0  0  0  0  0  0
   50.5596  -32.8112   20.5725 C   0  0  0  0  0  0
   52.7267  -32.1816   21.9209 H   0  0  0  0  0  0
   49.8584  -32.0647   18.9457 H   0  0  0  0  0  0
  1  2  1  0  0  0
  1 11  1  0  0  0
  1 42  1  0  0  0
  2  3  1  0  0  0
  2 41  1  0  0  0
  3  4  1  0  0  0
  4  5  2  0  0  0
  4  6  1  0  0  0
  5  7  1  0  0  0
  6  8  2  0  0  0
  7  9  2  0  0  0
  8  9  1  0  0  0
  9 10  1  0  0  0
 10 37  1  0  0  0
 11 12  2  0  0  0
 11 16  1  0  0  0
 12 13  1  0  0  0
 12 23  1  0  0  0
 13 14  2  0  0  0
 14 15  1  0  0  0
 15 16  2  0  0  0
 17 18  2  0  0  0
 17 22  1  0  0  0
 17 23  1  0  0  0
 18 19  1  0  0  0
 19 20  2  0  0  0
 20 21  1  0  0  0
 21 22  2  0  0  0
 23 24  2  0  0  0
 25 26  1  0  0  0
 25 29  1  0  0  0
 26 27  2  0  0  0
 26 31  1  0  0  0
 27 28  1  0  0  0
 28 29  2  0  0  0
 28 38  1  0  0  0
 29 30  1  0  0  0
 31 32  2  0  0  0
 31 36  1  0  0  0
 32 33  1  0  0  0
 33 34  2  0  0  0
 34 35  1  0  0  0
 35 36  2  0  0  0
 37 38  1  0  0  0
 39 41  2  0  0  0
 40 41  1  0  0  0
 40 43  1  0  0  0
M  END
>  <CHROM.0>
169.30964894,-49.84817036,80.59414074,64.03664826,-104.02938079,-179.81502509

>  <CHROM.1>
12.20305792,-136.82948943,143.52430578,-28.48453735,-72.55928347,-95.40110124
145.77241734,-172.88731037,-176.25447391,25.79760028,-13.17157823,-50.24442581
0.52033043,50.37408095,-35.59565630,21.40797266,-0.44254340,-0.51878540,-1.34368067

>  <FORMUL>
      570    C34 H30 N2 O5

>  <HET>
 570  D 200      41

>  <HETNAM>
     570 2-(2-BENZOYL-PHENYLAMINO)-3-{4-[2-(5-METHYL-2-PHENYL-OX
   2 570 AZOL-4-YL)-ETHOXY]-PHENYL}-PROPIONIC ACID

>  <HETSYN>
     570 GI262570

>  <Name>
570.pdb

>  <RI>
2.53022e+07

>  <Rbt.Current_Directory>
/home/malgorzata/Desktop/rDOCK_IFD/Wyniki/14_ppar-gamma/IFD

>  <Rbt.Executable>
rbdock ($Id: //depot/dev/client3/rdock/2013.1/src/exe/rbdock.cxx#4 $)

>  <Rbt.Library>
libRbt.so (2013.1, Build901 2013/11/27)

>  <Rbt.Parameter_File>
/home/malgorzata/Desktop/rDock_2013.1_src/data/scripts/dock.prm

>  <Rbt.Receptor>
cavity.prm

>  <SCORE>
92.1129

>  <SCORE.INTER>
-11.0755

>  <SCORE.INTER.CONST>
1

>  <SCORE.INTER.POLAR>
-1.23619

>  <SCORE.INTER.REPUL>
0.174282

>  <SCORE.INTER.ROT>
12

>  <SCORE.INTER.VDW>
-25.1438

>  <SCORE.INTER.norm>
-0.270134

>  <SCORE.INTRA>
8.77056

>  <SCORE.INTRA.DIHEDRAL>
15.5871

>  <SCORE.INTRA.DIHEDRAL.0>
12.9748

>  <SCORE.INTRA.POLAR>
0.058673

>  <SCORE.INTRA.POLAR.0>
-0.058673

>  <SCORE.INTRA.REPUL>
0.111342

>  <SCORE.INTRA.REPUL.0>
0

>  <SCORE.INTRA.VDW>
0.220807

>  <SCORE.INTRA.VDW.0>
-4.98062

>  <SCORE.INTRA.norm>
0.213916

>  <SCORE.RESTR>
0

>  <SCORE.RESTR.CAVITY>
0

>  <SCORE.RESTR.norm>
0

>  <SCORE.SYSTEM>
94.4178

>  <SCORE.SYSTEM.CONST>
0

>  <SCORE.SYSTEM.DIHEDRAL>
8.33303

>  <SCORE.SYSTEM.POLAR>
-5.44457

>  <SCORE.SYSTEM.VDW>
108.763

>  <SCORE.SYSTEM.norm>
2.30287

>  <SCORE.heavy>
41

>  <SCORE.norm>
2.24666

$$$$
570.pdb
  rDOCK(R)          3D
libRbt.so/2013.1/901 2013/11/27
 43 47  0  0  0  0  0  0  0  0999 V2000
   45.8586  -38.6102   16.5879 N   0  0  0  0  0  0
   46.3132  -38.8868   18.0013 C   0  0  0  0  0  0
   46.4330  -37.5953   18.8695 C   0  0  0  0  0  0
   47.5607  -36.6485   18.4437 C   0  0  0  0  0  0
   48.4466  -37.0681   17.3977 C   0  0  0  0  0  0
   47.7406  -35.3698   19.0672 C   0  0  0  0  0  0
   49.4964  -36.2316   16.9730 C   0  0  0  0  0  0
   48.7915  -34.5225   18.6486 C   0  0  0  0  0  0
   49.6993  -34.9501   17.5772 C   0  0  0  0  0  0
   50.7967  -34.2019   17.0533 O   0  0  0  0  0  0
   46.4750  -38.8173   15.2800 C   0  0  0  0  0  0
   47.6200  -39.7203   15.1177 C   0  0  0  0  0  0
   48.1618  -39.8636   13.7868 C   0  0  0  0  0  0
   47.6172  -39.1635   12.6847 C   0  0  0  0  0  0
   46.5199  -38.3009   12.8596 C   0  0  0  0  0  0
   45.9563  -38.1279   14.1254 C   0  0  0  0  0  0
   48.8330  -41.9983   16.2576 C   0  0  0  0  0  0
   49.0004  -42.7035   17.5090 C   0  0  0  0  0  0
   49.4726  -44.0476   17.5255 C   0  0  0  0  0  0
   49.7822  -44.7020   16.2968 C   0  0  0  0  0  0
   49.6214  -44.0148   15.0598 C   0  0  0  0  0  0
   49.1521  -42.6782   15.0404 C   0  0  0  0  0  0
   48.3248  -40.5647   16.2617 C   0  0  0  0  0  0
   48.4475  -40.0122   17.3741 O   0  0  0  0  0  0
   52.5726  -35.0668   22.2800 O   0  0  0  0  0  0
   53.8585  -34.9318   21.7688 C   0  0  0  0  0  0
   53.6960  -34.2672   20.5304 N   0  0  0  0  0  0
   52.3460  -34.0483   20.3586 C   0  0  0  0  0  0
   51.5819  -34.5569   21.4684 C   0  0  0  0  0  0
   50.0654  -34.5394   21.6986 C   0  0  0  0  0  0
   55.0661  -35.3523   22.3255 C   0  0  0  0  0  0
   56.3066  -35.3354   21.5874 C   0  0  0  0  0  0
   57.5064  -35.7793   22.2017 C   0  0  0  0  0  0
   57.4904  -36.2424   23.5432 C   0  0  0  0  0  0
   56.2770  -36.2635   24.2833 C   0  0  0  0  0  0
   55.0719  -35.8240   23.6805 C   0  0  0  0  0  0
   52.0466  -34.1272   17.7808 C   0  0  0  0  0  0
   51.8005  -33.3307   19.0765 C   0  0  0  0  0  0
   45.8043  -40.3333   19.7907 O   0  0  0  0  0  0
   44.3893  -40.3180   18.0693 O   0  0  0  0  0  0
   45.4287  -39.8984   18.6749 C   0  0  0  0  0  0
   44.9617  -38.2072   16.5377 H   0  0  0  0  0  0
   43.8118  -40.9220   18.4933 H   0  0  0  0  0  0
  1  2  1  0  0  0
  1 11  1  0  0  0
  1 42  1  0  0  0
  2  3  1  0  0  0
  2 41  1  0  0  0
  3  4  1  0  0  0
  4  5  2  0  0  0
  4  6  1  0  0  0
  5  7  1  0  0  0
  6  8  2  0  0  0
  7  9  2  0  0  0
  8  9  1  0  0  0
  9 10  1  0  0  0
 10 37  1  0  0  0
 11 12  2  0  0  0
 11 16  1  0  0  0
 12 13  1  0  0  0
 12 23  1  0  0  0
 13 14  2  0  0  0
 14 15  1  0  0  0
 15 16  2  0  0  0
 17 18  2  0  0  0
 17 22  1  0  0  0
 17 23  1  0  0  0
 18 19  1  0  0  0
 19 20  2  0  0  0
 20 21  1  0  0  0
 21 22  2  0  0  0
 23 24  2  0  0  0
 25 26  1  0  0  0
 25 29  1  0  0  0
 26 27  2  0  0  0
 26 31  1  0  0  0
 27 28  1  0  0  0
 28 29  2  0  0  0
 28 38  1  0  0  0
 29 30  1  0  0  0
 31 32  2  0  0  0
 31 36  1  0  0  0
 32 33  1  0  0  0
 33 34  2  0  0  0
 34 35  1  0  0  0
 35 36  2  0  0  0
 37 38  1  0  0  0
 39 41  2  0  0  0
 40 41  1  0  0  0
 40 43  1  0  0  0
M  END
>  <CHROM.0>
-56.95931158,70.02656985,75.92122515,19.94113817,88.62373469,-179.67154442

>  <CHROM.1>
117.97727058,16.88305567,-68.01388740,171.28028755,-5.07951688,-102.29404669
-67.17439143,138.10935315,-158.01252745,169.89513951,64.58886673,130.31045162
-177.50226559,49.88035227,-37.76849663,18.38703379,2.47811672,0.56832316
-2.92012026

>  <FORMUL>
      570    C34 H30 N2 O5

>  <HET>
 570  D 200      41

>  <HETNAM>
     570 2-(2-BENZOYL-PHENYLAMINO)-3-{4-[2-(5-METHYL-2-PHENYL-OX
   2 570 AZOL-4-YL)-ETHOXY]-PHENYL}-PROPIONIC ACID

>  <HETSYN>
     570 GI262570

>  <Name>
570.pdb

>  <RI>
2.53022e+07

>  <Rbt.Current_Directory>
/home/malgorzata/Desktop/rDOCK_IFD/Wyniki/14_ppar-gamma/IFD

>  <Rbt.Executable>
rbdock ($Id: //depot/dev/client3/rdock/2013.1/src/exe/rbdock.cxx#4 $)

>  <Rbt.Library>
libRbt.so (2013.1, Build901 2013/11/27)

>  <Rbt.Parameter_File>
/home/malgorzata/Desktop/rDock_2013.1_src/data/scripts/dock.prm

>  <Rbt.Receptor>
cavity.prm

>  <SCORE>
80.4098

>  <SCORE.INTER>
-15.6146

>  <SCORE.INTER.CONST>
1

>  <SCORE.INTER.POLAR>
0

>  <SCORE.INTER.REPUL>
0.170974

>  <SCORE.INTER.ROT>
12

>  <SCORE.INTER.VDW>
-33.8694

>  <SCORE.INTER.norm>
-0.380843

>  <SCORE.INTRA>
8.00259

>  <SCORE.INTRA.DIHEDRAL>
11.3644

>  <SCORE.INTRA.DIHEDRAL.0>
12.9748

>  <SCORE.INTRA.POLAR>
0.058673

>  <SCORE.INTRA.POLAR.0>
-0.058673

>  <SCORE.INTRA.REPUL>
0

>  <SCORE.INTRA.REPUL.0>
0

>  <SCORE.INTRA.VDW>
2.12092

>  <SCORE.INTRA.VDW.0>
-4.98062

>  <SCORE.INTRA.norm>
0.195185

>  <SCORE.RESTR>
0

>  <SCORE.RESTR.CAVITY>
0

>  <SCORE.RESTR.norm>
0

>  <SCORE.SYSTEM>
88.0218

>  <SCORE.SYSTEM.CONST>
0

>  <SCORE.SYSTEM.DIHEDRAL>
3.15881

>  <SCORE.SYSTEM.POLAR>
-6.23644

>  <SCORE.SYSTEM.VDW>
107.646

>  <SCORE.SYSTEM.norm>
2.14687

>  <SCORE.heavy>
41

>  <SCORE.norm>
1.96121

$$$$
570.pdb
  rDOCK(R)          3D
libRbt.so/2013.1/901 2013/11/27
 43 47  0  0  0  0  0  0  0  0999 V2000
   48.2905  -38.8558   16.3861 N   0  0  0  0  0  0
   47.3979  -37.6646   16.1310 C   0  0  0  0  0  0
   48.1936  -36.3437   15.8902 C   0  0  0  0  0  0
   49.3240  -36.0935   16.8948 C   0  0  0  0  0  0
   48.9897  -35.5461   18.1769 C   0  0  0  0  0  0
   50.6896  -36.3927   16.5757 C   0  0  0  0  0  0
   49.9944  -35.2997   19.1318 C   0  0  0  0  0  0
   51.7059  -36.1490   17.5271 C   0  0  0  0  0  0
   51.3656  -35.5892   18.8408 C   0  0  0  0  0  0
   52.2823  -35.2947   19.8949 O   0  0  0  0  0  0
   48.4816  -40.1289   15.6960 C   0  0  0  0  0  0
   48.3009  -41.4046   16.3981 C   0  0  0  0  0  0
   48.5094  -42.6118   15.6337 C   0  0  0  0  0  0
   48.8746  -42.5712   14.2676 C   0  0  0  0  0  0
   49.0446  -41.3387   13.6112 C   0  0  0  0  0  0
   48.8531  -40.1412   14.3035 C   0  0  0  0  0  0
   47.0537  -40.7123   18.8323 C   0  0  0  0  0  0
   46.9015  -41.0629   20.2269 C   0  0  0  0  0  0
   46.1221  -40.2480   21.0979 C   0  0  0  0  0  0
   45.4875  -39.0769   20.5887 C   0  0  0  0  0  0
   45.6310  -38.7245   19.2162 C   0  0  0  0  0  0
   46.4053  -39.5330   18.3479 C   0  0  0  0  0  0
   47.8924  -41.5940   17.9198 C   0  0  0  0  0  0
   48.3641  -42.5880   18.5093 O   0  0  0  0  0  0
   54.5640  -33.1829   23.5177 O   0  0  0  0  0  0
   54.2198  -34.3368   24.2129 C   0  0  0  0  0  0
   54.1829  -35.3595   23.2360 N   0  0  0  0  0  0
   54.4919  -34.7786   22.0247 C   0  0  0  0  0  0
   54.7405  -33.3667   22.1631 C   0  0  0  0  0  0
   55.1079  -32.3311   21.0927 C   0  0  0  0  0  0
   53.9565  -34.4883   25.5740 C   0  0  0  0  0  0
   54.8551  -35.1845   26.4639 C   0  0  0  0  0  0
   54.5352  -35.3134   27.8405 C   0  0  0  0  0  0
   53.3305  -34.7597   28.3465 C   0  0  0  0  0  0
   52.4364  -34.0700   27.4829 C   0  0  0  0  0  0
   52.7440  -33.9356   26.1060 C   0  0  0  0  0  0
   53.1960  -36.3097   20.3764 C   0  0  0  0  0  0
   54.5375  -35.6288   20.7089 C   0  0  0  0  0  0
   46.9276  -38.4150   13.9471 O   0  0  0  0  0  0
   45.2252  -37.5798   15.1175 O   0  0  0  0  0  0
   46.4459  -37.9243   14.9970 C   0  0  0  0  0  0
   48.8614  -38.7530   17.1815 H   0  0  0  0  0  0
   44.6219  -37.7402   14.4187 H   0  0  0  0  0  0
  1  2  1  0  0  0
  1 11  1  0  0  0
  1 42  1  0  0  0
  2  3  1  0  0  0
  2 41  1  0  0  0
  3  4  1  0  0  0
  4  5  2  0  0  0
  4  6  1  0  0  0
  5  7  1  0  0  0
  6  8  2  0  0  0
  7  9  2  0  0  0
  8  9  1  0  0  0
  9 10  1  0  0  0
 10 37  1  0  0  0
 11 12  2  0  0  0
 11 16  1  0  0  0
 12 13  1  0  0  0
 12 23  1  0  0  0
 13 14  2  0  0  0
 14 15  1  0  0  0
 15 16  2  0  0  0
 17 18  2  0  0  0
 17 22  1  0  0  0
 17 23  1  0  0  0
 18 19  1  0  0  0
 19 20  2  0  0  0
 20 21  1  0  0  0
 21 22  2  0  0  0
 23 24  2  0  0  0
 25 26  1  0  0  0
 25 29  1  0  0  0
 26 27  2  0  0  0
 26 31  1  0  0  0
 27 28  1  0  0  0
 28 29  2  0  0  0
 28 38  1  0  0  0
 29 30  1  0  0  0
 31 32  2  0  0  0
 31 36  1  0  0  0
 32 33  1  0  0  0
 33 34  2  0  0  0
 34 35  1  0  0  0
 35 36  2  0  0  0
 37 38  1  0  0  0
 39 41  2  0  0  0
 40 41  1  0  0  0
 40 43  1  0  0  0
M  END
>  <CHROM.0>
-53.94090734,-160.33418165,-16.87699934,47.73180765,-43.01692427,-179.70563102

>  <CHROM.1>
-119.44349108,-123.06571001,-46.20434752,-47.44167693,-80.61379150,126.46134595
142.70545597,29.30214203,-175.60997386,-109.42756862,59.80027941,73.85984808
-179.72769177,50.22615807,-37.34327492,19.54742104,-2.43585152,0.78733039
1.69076215

>  <FORMUL>
      570    C34 H30 N2 O5

>  <HET>
 570  D 200      41

>  <HETNAM>
     570 2-(2-BENZOYL-PHENYLAMINO)-3-{4-[2-(5-METHYL-2-PHENYL-OX
   2 570 AZOL-4-YL)-ETHOXY]-PHENYL}-PROPIONIC ACID

>  <HETSYN>
     570 GI262570

>  <Name>
570.pdb

>  <RI>
2.53022e+07

>  <Rbt.Current_Directory>
/home/malgorzata/Desktop/rDOCK_IFD/Wyniki/14_ppar-gamma/IFD

>  <Rbt.Executable>
rbdock ($Id: //depot/dev/client3/rdock/2013.1/src/exe/rbdock.cxx#4 $)

>  <Rbt.Library>
libRbt.so (2013.1, Build901 2013/11/27)

>  <Rbt.Parameter_File>
/home/malgorzata/Desktop/rDock_2013.1_src/data/scripts/dock.prm

>  <Rbt.Receptor>
cavity.prm

>  <SCORE>
89.8121

>  <SCORE.INTER>
-16.2947

>  <SCORE.INTER.CONST>
1

>  <SCORE.INTER.POLAR>
-0.858496

>  <SCORE.INTER.REPUL>
0.00167686

>  <SCORE.INTER.ROT>
12

>  <SCORE.INTER.VDW>
-30.7842

>  <SCORE.INTER.norm>
-0.397431

>  <SCORE.INTRA>
13.3964

>  <SCORE.INTRA.DIHEDRAL>
25.587

>  <SCORE.INTRA.DIHEDRAL.0>
12.9748

>  <SCORE.INTRA.POLAR>
0.058673

>  <SCORE.INTRA.POLAR.0>
-0.058673

>  <SCORE.INTRA.REPUL>
0

>  <SCORE.INTRA.REPUL.0>
0

>  <SCORE.INTRA.VDW>
0.403363

>  <SCORE.INTRA.VDW.0>
-4.98062

>  <SCORE.INTRA.norm>
0.326741

>  <SCORE.RESTR>
0

>  <SCORE.RESTR.CAVITY>
0

>  <SCORE.RESTR.norm>
0

>  <SCORE.SYSTEM>
92.7104

>  <SCORE.SYSTEM.CONST>
0

>  <SCORE.SYSTEM.DIHEDRAL>
5.61978

>  <SCORE.SYSTEM.POLAR>
-5.69661

>  <SCORE.SYSTEM.REPUL>
0.0774167

>  <SCORE.SYSTEM.VDW>
108.882

>  <SCORE.SYSTEM.norm>
2.26123

>  <SCORE.heavy>
41

>  <SCORE.norm>
2.19054

$$$$
570.pdb
  rDOCK(R)          3D
libRbt.so/2013.1/901 2013/11/27
 43 47  0  0  0  0  0  0  0  0999 V2000
   47.4698  -44.1268   18.2715 N   0  0  0  0  0  0
   46.9404  -44.1369   19.6858 C   0  0  0  0  0  0
   46.1331  -42.8508   20.0464 C   0  0  0  0  0  0
   46.4690  -41.6296   19.1832 C   0  0  0  0  0  0
   47.8029  -41.4984   18.6747 C   0  0  0  0  0  0
   45.4845  -40.6312   18.8825 C   0  0  0  0  0  0
   48.1574  -40.3938   17.8771 C   0  0  0  0  0  0
   45.8301  -39.5182   18.0828 C   0  0  0  0  0  0
   47.1953  -39.3825   17.5607 C   0  0  0  0  0  0
   47.6834  -38.3187   16.7430 O   0  0  0  0  0  0
   46.9319  -44.5998   16.9984 C   0  0  0  0  0  0
   47.5976  -44.2805   15.7305 C   0  0  0  0  0  0
   46.9940  -44.7930   14.5229 C   0  0  0  0  0  0
   45.8107  -45.5676   14.5559 C   0  0  0  0  0  0
   45.1855  -45.8627   15.7810 C   0  0  0  0  0  0
   45.7290  -45.3934   16.9786 C   0  0  0  0  0  0
   49.5789  -42.8783   14.2923 C   0  0  0  0  0  0
   48.7633  -42.5495   13.1443 C   0  0  0  0  0  0
   49.3579  -42.0305   11.9580 C   0  0  0  0  0  0
   50.7693  -41.8339   11.9038 C   0  0  0  0  0  0
   51.5804  -42.1561   13.0293 C   0  0  0  0  0  0
   50.9919  -42.6723   14.2101 C   0  0  0  0  0  0
   48.9242  -43.4284   15.5501 C   0  0  0  0  0  0
   49.5921  -43.2026   16.5801 O   0  0  0  0  0  0
   50.5416  -34.9715   17.7814 O   0  0  0  0  0  0
   50.3129  -34.9961   19.1526 C   0  0  0  0  0  0
   48.9909  -35.4785   19.2981 N   0  0  0  0  0  0
   48.4977  -35.7068   18.0314 C   0  0  0  0  0  0
   49.4703  -35.3851   17.0190 C   0  0  0  0  0  0
   49.3561  -35.4770   15.4920 C   0  0  0  0  0  0
   51.1736  -34.6280   20.1863 C   0  0  0  0  0  0
   50.8154  -34.7646   21.5781 C   0  0  0  0  0  0
   51.7286  -34.3697   22.5901 C   0  0  0  0  0  0
   52.9963  -33.8381   22.2373 C   0  0  0  0  0  0
   53.3640  -33.6989   20.8712 C   0  0  0  0  0  0
   52.4603  -34.0885   19.8513 C   0  0  0  0  0  0
   46.8954  -37.1185   16.5547 C   0  0  0  0  0  0
   47.0419  -36.2457   17.8159 C   0  0  0  0  0  0
   46.6619  -46.2716   20.6446 O   0  0  0  0  0  0
   44.9672  -45.4779   19.4349 O   0  0  0  0  0  0
   46.1238  -45.3692   19.9580 C   0  0  0  0  0  0
   48.3613  -43.7169   18.1909 H   0  0  0  0  0  0
   44.4306  -46.2197   19.6343 H   0  0  0  0  0  0
  1  2  1  0  0  0
  1 11  1  0  0  0
  1 42  1  0  0  0
  2  3  1  0  0  0
  2 41  1  0  0  0
  3  4  1  0  0  0
  4  5  2  0  0  0
  4  6  1  0  0  0
  5  7  1  0  0  0
  6  8  2  0  0  0
  7  9  2  0  0  0
  8  9  1  0  0  0
  9 10  1  0  0  0
 10 37  1  0  0  0
 11 12  2  0  0  0
 11 16  1  0  0  0
 12 13  1  0  0  0
 12 23  1  0  0  0
 13 14  2  0  0  0
 14 15  1  0  0  0
 15 16  2  0  0  0
 17 18  2  0  0  0
 17 22  1  0  0  0
 17 23  1  0  0  0
 18 19  1  0  0  0
 19 20  2  0  0  0
 20 21  1  0  0  0
 21 22  2  0  0  0
 23 24  2  0  0  0
 25 26  1  0  0  0
 25 29  1  0  0  0
 26 27  2  0  0  0
 26 31  1  0  0  0
 27 28  1  0  0  0
 28 29  2  0  0  0
 28 38  1  0  0  0
 29 30  1  0  0  0
 31 32  2  0  0  0
 31 36  1  0  0  0
 32 33  1  0  0  0
 33 34  2  0  0  0
 34 35  1  0  0  0
 35 36  2  0  0  0
 37 38  1  0  0  0
 39 41  2  0  0  0
 40 41  1  0  0  0
 40 43  1  0  0  0
M  END
>  <CHROM.0>
63.78510668,-56.41489972,82.83528887,24.93908927,-3.73215396,-179.63303743

>  <CHROM.1>
-90.77554094,171.03500892,-22.92111060,103.99002199,-31.21250146,-168.59025705
77.90727452,-170.17071932,28.61912408,-177.16469930,-149.22679956,65.53015511
-176.70999889,48.46693094,-40.31146391,17.55346304,2.29946064,-1.02411080
-2.18889783

>  <FORMUL>
      570    C34 H30 N2 O5

>  <HET>
 570  D 200      41

>  <HETNAM>
     570 2-(2-BENZOYL-PHENYLAMINO)-3-{4-[2-(5-METHYL-2-PHENYL-OX
   2 570 AZOL-4-YL)-ETHOXY]-PHENYL}-PROPIONIC ACID

>  <HETSYN>
     570 GI262570

>  <Name>
570.pdb

>  <RI>
2.53022e+07

>  <Rbt.Current_Directory>
/home/malgorzata/Desktop/rDOCK_IFD/Wyniki/14_ppar-gamma/IFD

>  <Rbt.Executable>
rbdock ($Id: //depot/dev/client3/rdock/2013.1/src/exe/rbdock.cxx#4 $)

>  <Rbt.Library>
libRbt.so (2013.1, Build901 2013/11/27)

>  <Rbt.Parameter_File>
/home/malgorzata/Desktop/rDock_2013.1_src/data/scripts/dock.prm

>  <Rbt.Receptor>
cavity.prm

>  <SCORE>
85.7343

>  <SCORE.INTER>
-10.4964

>  <SCORE.INTER.CONST>
1

>  <SCORE.INTER.POLAR>
0

>  <SCORE.INTER.REPUL>
0

>  <SCORE.INTER.ROT>
12

>  <SCORE.INTER.VDW>
-27.8964

>  <SCORE.INTER.norm>
-0.256009

>  <SCORE.INTRA>
4.27146

>  <SCORE.INTRA.DIHEDRAL>
1.50002

>  <SCORE.INTRA.DIHEDRAL.0>
12.9748

>  <SCORE.INTRA.POLAR>
-0.00678363

>  <SCORE.INTRA.POLAR.0>
-0.058673

>  <SCORE.INTRA.REPUL>
0

>  <SCORE.INTRA.REPUL.0>
0

>  <SCORE.INTRA.VDW>
3.54452

>  <SCORE.INTRA.VDW.0>
-4.98062

>  <SCORE.INTRA.norm>
0.104182

>  <SCORE.RESTR>
0.538517

>  <SCORE.RESTR.CAVITY>
0.538517

>  <SCORE.RESTR.norm>
0.0131346

>  <SCORE.SYSTEM>
91.4207

>  <SCORE.SYSTEM.CONST>
0

>  <SCORE.SYSTEM.DIHEDRAL>
4.95299

>  <SCORE.SYSTEM.POLAR>
-5.66051

>  <SCORE.SYSTEM.REPUL>
0.049501

>  <SCORE.SYSTEM.VDW>
107.942

>  <SCORE.SYSTEM.norm>
2.22977

>  <SCORE.heavy>
41

>  <SCORE.norm>
2.09108

$$$$
