570.pdb
  rDOCK(R)          3D
libRbt.so/2013.1/901 2013/11/27
 43 47  0  0  0  0  0  0  0  0999 V2000
   54.9500  -32.6810   22.3637 N   0  0  0  0  0  0
   53.8745  -31.7619   21.8351 C   0  0  0  0  0  0
   52.4319  -32.2398   22.1904 C   0  0  0  0  0  0
   51.6315  -32.7775   20.9989 C   0  0  0  0  0  0
   52.2587  -32.8027   19.7101 C   0  0  0  0  0  0
   50.2851  -33.2470   21.1515 C   0  0  0  0  0  0
   51.5627  -33.2882   18.5868 C   0  0  0  0  0  0
   49.5774  -33.7362   20.0302 C   0  0  0  0  0  0
   50.2182  -33.7634   18.7098 C   0  0  0  0  0  0
   49.6286  -34.2297   17.4960 O   0  0  0  0  0  0
   56.3294  -32.9426   21.9608 C   0  0  0  0  0  0
   56.9831  -34.2161   22.2830 C   0  0  0  0  0  0
   58.3477  -34.3855   21.8422 C   0  0  0  0  0  0
   59.0297  -33.3693   21.1324 C   0  0  0  0  0  0
   58.3872  -32.1542   20.8335 C   0  0  0  0  0  0
   57.0670  -31.9396   21.2348 C   0  0  0  0  0  0
   54.8826  -35.8525   23.2158 C   0  0  0  0  0  0
   53.9006  -35.3813   22.2646 C   0  0  0  0  0  0
   52.5332  -35.7630   22.3858 C   0  0  0  0  0  0
   52.1311  -36.6172   23.4545 C   0  0  0  0  0  0
   53.0913  -37.0852   24.3965 C   0  0  0  0  0  0
   54.4515  -36.7072   24.2785 C   0  0  0  0  0  0
   56.3378  -35.4357   23.0669 C   0  0  0  0  0  0
   57.1162  -36.1572   23.7238 O   0  0  0  0  0  0
   48.2998  -38.4453   15.7039 O   0  0  0  0  0  0
   48.8370  -39.0005   16.8599 C   0  0  0  0  0  0
   48.6751  -38.0087   17.8558 N   0  0  0  0  0  0
   48.0686  -36.9248   17.2579 C   0  0  0  0  0  0
   47.8134  -37.1652   15.8610 C   0  0  0  0  0  0
   47.1685  -36.2472   14.8148 C   0  0  0  0  0  0
   49.4204  -40.2551   17.0344 C   0  0  0  0  0  0
   49.9869  -40.6775   18.2933 C   0  0  0  0  0  0
   50.5727  -41.9644   18.4140 C   0  0  0  0  0  0
   50.6048  -42.8398   17.2973 C   0  0  0  0  0  0
   50.0497  -42.4387   16.0517 C   0  0  0  0  0  0
   49.4629  -41.1555   15.9181 C   0  0  0  0  0  0
   48.1895  -34.3339   17.3731 C   0  0  0  0  0  0
   47.7405  -35.6292   18.0764 C   0  0  0  0  0  0
   53.8224  -29.4347   21.4678 O   0  0  0  0  0  0
   54.5921  -30.1298   23.4401 O   0  0  0  0  0  0
   54.0906  -30.3453   22.2888 C   0  0  0  0  0  0
   54.6620  -33.2136   23.1400 H   0  0  0  0  0  0
   54.7802  -30.8485   24.0112 H   0  0  0  0  0  0
  1  2  1  0  0  0
  1 11  1  0  0  0
  1 42  1  0  0  0
  2  3  1  0  0  0
  2 41  1  0  0  0
  3  4  1  0  0  0
  4  5  2  0  0  0
  4  6  1  0  0  0
  5  7  1  0  0  0
  6  8  2  0  0  0
  7  9  2  0  0  0
  8  9  1  0  0  0
  9 10  1  0  0  0
 10 37  1  0  0  0
 11 12  2  0  0  0
 11 16  1  0  0  0
 12 13  1  0  0  0
 12 23  1  0  0  0
 13 14  2  0  0  0
 14 15  1  0  0  0
 15 16  2  0  0  0
 17 18  2  0  0  0
 17 22  1  0  0  0
 17 23  1  0  0  0
 18 19  1  0  0  0
 19 20  2  0  0  0
 20 21  1  0  0  0
 21 22  2  0  0  0
 23 24  2  0  0  0
 25 26  1  0  0  0
 25 29  1  0  0  0
 26 27  2  0  0  0
 26 31  1  0  0  0
 27 28  1  0  0  0
 28 29  2  0  0  0
 28 38  1  0  0  0
 29 30  1  0  0  0
 31 32  2  0  0  0
 31 36  1  0  0  0
 32 33  1  0  0  0
 33 34  2  0  0  0
 34 35  1  0  0  0
 35 36  2  0  0  0
 37 38  1  0  0  0
 39 41  2  0  0  0
 40 41  1  0  0  0
 40 43  1  0  0  0
M  END
>  <CHROM.0>
-62.09740275,177.62158482

>  <CHROM.1>
155.99221526,-155.74108586,-108.69443666,142.36232178,0.43749229,-160.34368280
-79.40448253,25.68120895,20.20852012,177.48782499,132.02946525,-74.89601763
-3.19623114,52.28687423,-35.38826527,20.07605956,0.68407510,-0.60979964,0.12574389

>  <FORMUL>
      570    C34 H30 N2 O5

>  <HET>
 570  D 200      41

>  <HETNAM>
     570 2-(2-BENZOYL-PHENYLAMINO)-3-{4-[2-(5-METHYL-2-PHENYL-OX
   2 570 AZOL-4-YL)-ETHOXY]-PHENYL}-PROPIONIC ACID

>  <HETSYN>
     570 GI262570

>  <Name>
570.pdb

>  <RI>
0

>  <Rbt.Current_Directory>
/home/malgorzata/Desktop/rDOCK_IFD/Wyniki/14_ppar-gamma/IFD

>  <Rbt.Executable>
rbdock ($Id: //depot/dev/client3/rdock/2013.1/src/exe/rbdock.cxx#4 $)

>  <Rbt.Library>
libRbt.so (2013.1, Build901 2013/11/27)

>  <Rbt.Parameter_File>
/home/malgorzata/Desktop/rDock_2013.1_src/data/scripts/dock.prm

>  <Rbt.Receptor>
cavity.prm

>  <SCORE>
-4.25847

>  <SCORE.INTER>
-8.65362

>  <SCORE.INTER.CONST>
1

>  <SCORE.INTER.POLAR>
-0.0282978

>  <SCORE.INTER.REPUL>
0.188356

>  <SCORE.INTER.ROT>
12

>  <SCORE.INTER.VDW>
-26.8992

>  <SCORE.INTER.norm>
-0.211064

>  <SCORE.INTRA>
5.06748

>  <SCORE.INTRA.DIHEDRAL>
8.23221

>  <SCORE.INTRA.DIHEDRAL.0>
12.9748

>  <SCORE.INTRA.POLAR>
0.058673

>  <SCORE.INTRA.POLAR.0>
-0.058673

>  <SCORE.INTRA.REPUL>
0

>  <SCORE.INTRA.REPUL.0>
0

>  <SCORE.INTRA.VDW>
0.751886

>  <SCORE.INTRA.VDW.0>
-4.98062

>  <SCORE.INTRA.norm>
0.123597

>  <SCORE.RESTR>
0

>  <SCORE.RESTR.CAVITY>
0

>  <SCORE.RESTR.norm>
0

>  <SCORE.SYSTEM>
-0.672328

>  <SCORE.SYSTEM.CONST>
0

>  <SCORE.SYSTEM.DIHEDRAL>
0.0495663

>  <SCORE.SYSTEM.VDW>
-0.697111

>  <SCORE.SYSTEM.norm>
-0.0163982

>  <SCORE.heavy>
41

>  <SCORE.norm>
-0.103865

$$$$
570.pdb
  rDOCK(R)          3D
libRbt.so/2013.1/901 2013/11/27
 43 47  0  0  0  0  0  0  0  0999 V2000
   50.5086  -34.0591   20.4592 N   0  0  0  0  0  0
   49.9588  -33.6871   19.1027 C   0  0  0  0  0  0
   48.4671  -34.1043   18.9113 C   0  0  0  0  0  0
   48.1680  -34.7896   17.5733 C   0  0  0  0  0  0
   48.8860  -34.3589   16.4096 C   0  0  0  0  0  0
   47.1949  -35.8377   17.4696 C   0  0  0  0  0  0
   48.6450  -34.9594   15.1593 C   0  0  0  0  0  0
   46.9452  -36.4471   16.2190 C   0  0  0  0  0  0
   47.6799  -36.0080   15.0264 C   0  0  0  0  0  0
   47.5339  -36.5313   13.7061 O   0  0  0  0  0  0
   50.0207  -33.8696   21.8229 C   0  0  0  0  0  0
   50.7676  -34.3913   22.9730 C   0  0  0  0  0  0
   50.2087  -34.1538   24.2832 C   0  0  0  0  0  0
   48.9928  -33.4515   24.4551 C   0  0  0  0  0  0
   48.2897  -32.9596   23.3404 C   0  0  0  0  0  0
   48.7872  -33.1598   22.0510 C   0  0  0  0  0  0
   53.3985  -34.9360   22.1121 C   0  0  0  0  0  0
   53.5213  -33.7193   21.3403 C   0  0  0  0  0  0
   54.6957  -33.4619   20.5756 C   0  0  0  0  0  0
   55.7583  -34.4129   20.5725 C   0  0  0  0  0  0
   55.6455  -35.6144   21.3288 C   0  0  0  0  0  0
   54.4789  -35.8730   22.0900 C   0  0  0  0  0  0
   52.1378  -35.1903   22.9240 C   0  0  0  0  0  0
   52.2060  -36.2323   23.6078 O   0  0  0  0  0  0
   49.1846  -41.0257   12.8080 O   0  0  0  0  0  0
   48.6871  -40.8692   14.0969 C   0  0  0  0  0  0
   47.7286  -39.8331   13.9997 N   0  0  0  0  0  0
   47.7049  -39.4207   12.6847 C   0  0  0  0  0  0
   48.6387  -40.1653   11.8798 C   0  0  0  0  0  0
   48.9505  -40.0434   10.3827 C   0  0  0  0  0  0
   49.0371  -41.5611   15.2561 C   0  0  0  0  0  0
   50.3906  -41.9839   15.5268 C   0  0  0  0  0  0
   50.6904  -42.6896   16.7210 C   0  0  0  0  0  0
   49.6604  -42.9833   17.6522 C   0  0  0  0  0  0
   48.3231  -42.5722   17.4003 C   0  0  0  0  0  0
   48.0108  -41.8678   16.2107 C   0  0  0  0  0  0
   46.3606  -37.3010   13.3485 C   0  0  0  0  0  0
   46.7497  -38.2701   12.2156 C   0  0  0  0  0  0
   49.1721  -31.6163   18.2988 O   0  0  0  0  0  0
   51.2691  -31.6783   19.0498 O   0  0  0  0  0  0
   50.1402  -32.2220   18.8194 C   0  0  0  0  0  0
   51.3744  -34.5257   20.4154 H   0  0  0  0  0  0
   51.9815  -32.1956   19.3707 H   0  0  0  0  0  0
  1  2  1  0  0  0
  1 11  1  0  0  0
  1 42  1  0  0  0
  2  3  1  0  0  0
  2 41  1  0  0  0
  3  4  1  0  0  0
  4  5  2  0  0  0
  4  6  1  0  0  0
  5  7  1  0  0  0
  6  8  2  0  0  0
  7  9  2  0  0  0
  8  9  1  0  0  0
  9 10  1  0  0  0
 10 37  1  0  0  0
 11 12  2  0  0  0
 11 16  1  0  0  0
 12 13  1  0  0  0
 12 23  1  0  0  0
 13 14  2  0  0  0
 14 15  1  0  0  0
 15 16  2  0  0  0
 17 18  2  0  0  0
 17 22  1  0  0  0
 17 23  1  0  0  0
 18 19  1  0  0  0
 19 20  2  0  0  0
 20 21  1  0  0  0
 21 22  2  0  0  0
 23 24  2  0  0  0
 25 26  1  0  0  0
 25 29  1  0  0  0
 26 27  2  0  0  0
 26 31  1  0  0  0
 27 28  1  0  0  0
 28 29  2  0  0  0
 28 38  1  0  0  0
 29 30  1  0  0  0
 31 32  2  0  0  0
 31 36  1  0  0  0
 32 33  1  0  0  0
 33 34  2  0  0  0
 34 35  1  0  0  0
 35 36  2  0  0  0
 37 38  1  0  0  0
 39 41  2  0  0  0
 40 41  1  0  0  0
 40 43  1  0  0  0
M  END
>  <CHROM.0>
73.49709722,67.27660558

>  <CHROM.1>
-49.10428053,177.83003772,-134.09981601,-136.97385449,-34.94069329,-162.31034863
-152.51256378,43.93784881,7.79353574,36.47332179,25.03547912,69.85301387
1.61107608,49.83425838,-36.51347316,17.99437352,1.05001775,-0.89963556,0.49706496

>  <FORMUL>
      570    C34 H30 N2 O5

>  <HET>
 570  D 200      41

>  <HETNAM>
     570 2-(2-BENZOYL-PHENYLAMINO)-3-{4-[2-(5-METHYL-2-PHENYL-OX
   2 570 AZOL-4-YL)-ETHOXY]-PHENYL}-PROPIONIC ACID

>  <HETSYN>
     570 GI262570

>  <Name>
570.pdb

>  <RI>
0

>  <Rbt.Current_Directory>
/home/malgorzata/Desktop/rDOCK_IFD/Wyniki/14_ppar-gamma/IFD

>  <Rbt.Executable>
rbdock ($Id: //depot/dev/client3/rdock/2013.1/src/exe/rbdock.cxx#4 $)

>  <Rbt.Library>
libRbt.so (2013.1, Build901 2013/11/27)

>  <Rbt.Parameter_File>
/home/malgorzata/Desktop/rDock_2013.1_src/data/scripts/dock.prm

>  <Rbt.Receptor>
cavity.prm

>  <SCORE>
-4.66837

>  <SCORE.INTER>
-15.0959

>  <SCORE.INTER.CONST>
1

>  <SCORE.INTER.POLAR>
0

>  <SCORE.INTER.REPUL>
0.0102463

>  <SCORE.INTER.ROT>
12

>  <SCORE.INTER.VDW>
-32.5471

>  <SCORE.INTER.norm>
-0.368192

>  <SCORE.INTRA>
8.33428

>  <SCORE.INTRA.DIHEDRAL>
12.6166

>  <SCORE.INTRA.DIHEDRAL.0>
12.9748

>  <SCORE.INTRA.POLAR>
0.058673

>  <SCORE.INTRA.POLAR.0>
-0.058673

>  <SCORE.INTRA.REPUL>
0

>  <SCORE.INTRA.REPUL.0>
0

>  <SCORE.INTRA.VDW>
1.82649

>  <SCORE.INTRA.VDW.0>
-4.98062

>  <SCORE.INTRA.norm>
0.203275

>  <SCORE.RESTR>
0.0940599

>  <SCORE.RESTR.CAVITY>
0.0940599

>  <SCORE.RESTR.norm>
0.00229414

>  <SCORE.SYSTEM>
1.99917

>  <SCORE.SYSTEM.CONST>
0

>  <SCORE.SYSTEM.DIHEDRAL>
1.12033

>  <SCORE.SYSTEM.VDW>
1.43901

>  <SCORE.SYSTEM.norm>
0.0487603

>  <SCORE.heavy>
41

>  <SCORE.norm>
-0.113863

$$$$
570.pdb
  rDOCK(R)          3D
libRbt.so/2013.1/901 2013/11/27
 43 47  0  0  0  0  0  0  0  0999 V2000
   50.0677  -33.4513   20.6947 N   0  0  0  0  0  0
   48.8747  -32.5498   20.4827 C   0  0  0  0  0  0
   47.5352  -33.1810   20.9758 C   0  0  0  0  0  0
   47.0552  -34.3767   20.1455 C   0  0  0  0  0  0
   45.6677  -34.7331   20.1996 C   0  0  0  0  0  0
   47.9596  -35.1331   19.3292 C   0  0  0  0  0  0
   45.1812  -35.8235   19.4537 C   0  0  0  0  0  0
   47.4815  -36.2297   18.5766 C   0  0  0  0  0  0
   46.0610  -36.5958   18.6302 C   0  0  0  0  0  0
   45.4404  -37.6715   17.9258 O   0  0  0  0  0  0
   50.6879  -34.0268   21.8854 C   0  0  0  0  0  0
   51.9410  -33.4847   22.4228 C   0  0  0  0  0  0
   52.4783  -34.1171   23.6046 C   0  0  0  0  0  0
   51.8296  -35.2136   24.2194 C   0  0  0  0  0  0
   50.6294  -35.7208   23.6893 C   0  0  0  0  0  0
   50.0655  -35.1446   22.5491 C   0  0  0  0  0  0
   53.8531  -31.4109   22.4769 C   0  0  0  0  0  0
   53.9762  -30.0163   22.1147 C   0  0  0  0  0  0
   54.9842  -29.2007   22.7053 C   0  0  0  0  0  0
   55.8785  -29.7657   23.6616 C   0  0  0  0  0  0
   55.7654  -31.1385   24.0234 C   0  0  0  0  0  0
   54.7640  -31.9518   23.4378 C   0  0  0  0  0  0
   52.7683  -32.2637   21.8371 C   0  0  0  0  0  0
   52.4669  -31.8794   20.6884 O   0  0  0  0  0  0
   46.5572  -42.2899   18.1393 O   0  0  0  0  0  0
   47.6326  -41.4236   18.3013 C   0  0  0  0  0  0
   47.0770  -40.2435   18.8495 N   0  0  0  0  0  0
   45.7207  -40.4524   18.9785 C   0  0  0  0  0  0
   45.3419  -41.7654   18.5238 C   0  0  0  0  0  0
   43.9551  -42.4195   18.4772 C   0  0  0  0  0  0
   48.9767  -41.6363   17.9963 C   0  0  0  0  0  0
   50.0475  -41.0288   18.7500 C   0  0  0  0  0  0
   51.3986  -41.2759   18.3929 C   0  0  0  0  0  0
   51.7013  -42.1200   17.2928 C   0  0  0  0  0  0
   50.6578  -42.7266   16.5420 C   0  0  0  0  0  0
   49.3045  -42.4866   16.8880 C   0  0  0  0  0  0
   44.2868  -38.3449   18.4851 C   0  0  0  0  0  0
   44.7824  -39.3370   19.5546 C   0  0  0  0  0  0
   50.2662  -30.8868   21.4056 O   0  0  0  0  0  0
   48.0773  -30.4706   21.3750 O   0  0  0  0  0  0
   49.0875  -31.2004   21.1099 C   0  0  0  0  0  0
   50.5207  -33.7031   19.8577 H   0  0  0  0  0  0
   48.2003  -29.5972   21.6911 H   0  0  0  0  0  0
  1  2  1  0  0  0
  1 11  1  0  0  0
  1 42  1  0  0  0
  2  3  1  0  0  0
  2 41  1  0  0  0
  3  4  1  0  0  0
  4  5  2  0  0  0
  4  6  1  0  0  0
  5  7  1  0  0  0
  6  8  2  0  0  0
  7  9  2  0  0  0
  8  9  1  0  0  0
  9 10  1  0  0  0
 10 37  1  0  0  0
 11 12  2  0  0  0
 11 16  1  0  0  0
 12 13  1  0  0  0
 12 23  1  0  0  0
 13 14  2  0  0  0
 14 15  1  0  0  0
 15 16  2  0  0  0
 17 18  2  0  0  0
 17 22  1  0  0  0
 17 23  1  0  0  0
 18 19  1  0  0  0
 19 20  2  0  0  0
 20 21  1  0  0  0
 21 22  2  0  0  0
 23 24  2  0  0  0
 25 26  1  0  0  0
 25 29  1  0  0  0
 26 27  2  0  0  0
 26 31  1  0  0  0
 27 28  1  0  0  0
 28 29  2  0  0  0
 28 38  1  0  0  0
 29 30  1  0  0  0
 31 32  2  0  0  0
 31 36  1  0  0  0
 32 33  1  0  0  0
 33 34  2  0  0  0
 34 35  1  0  0  0
 35 36  2  0  0  0
 37 38  1  0  0  0
 39 41  2  0  0  0
 40 41  1  0  0  0
 40 43  1  0  0  0
M  END
>  <CHROM.0>
-59.59172943,-53.18106412

>  <CHROM.1>
-61.37282445,-104.11837766,-68.69948767,17.02913783,-158.77300610,-30.23431650
-79.12165007,162.82035745,-147.43685985,-148.46597142,86.34971883,-61.89985078
-174.28709682,49.40910008,-35.95469785,20.34009793,1.04740548,-0.19364736
0.31845411

>  <FORMUL>
      570    C34 H30 N2 O5

>  <HET>
 570  D 200      41

>  <HETNAM>
     570 2-(2-BENZOYL-PHENYLAMINO)-3-{4-[2-(5-METHYL-2-PHENYL-OX
   2 570 AZOL-4-YL)-ETHOXY]-PHENYL}-PROPIONIC ACID

>  <HETSYN>
     570 GI262570

>  <Name>
570.pdb

>  <RI>
0

>  <Rbt.Current_Directory>
/home/malgorzata/Desktop/rDOCK_IFD/Wyniki/14_ppar-gamma/IFD

>  <Rbt.Executable>
rbdock ($Id: //depot/dev/client3/rdock/2013.1/src/exe/rbdock.cxx#4 $)

>  <Rbt.Library>
libRbt.so (2013.1, Build901 2013/11/27)

>  <Rbt.Parameter_File>
/home/malgorzata/Desktop/rDock_2013.1_src/data/scripts/dock.prm

>  <Rbt.Receptor>
cavity.prm

>  <SCORE>
11.8873

>  <SCORE.INTER>
1.67832

>  <SCORE.INTER.CONST>
1

>  <SCORE.INTER.POLAR>
0

>  <SCORE.INTER.REPUL>
0

>  <SCORE.INTER.ROT>
12

>  <SCORE.INTER.VDW>
-15.7217

>  <SCORE.INTER.norm>
0.0409347

>  <SCORE.INTRA>
10.0056

>  <SCORE.INTRA.DIHEDRAL>
16.1449

>  <SCORE.INTRA.DIHEDRAL.0>
12.9748

>  <SCORE.INTRA.POLAR>
0.058673

>  <SCORE.INTRA.POLAR.0>
-0.058673

>  <SCORE.INTRA.REPUL>
0

>  <SCORE.INTRA.REPUL.0>
0

>  <SCORE.INTRA.VDW>
1.73365

>  <SCORE.INTRA.VDW.0>
-4.98062

>  <SCORE.INTRA.norm>
0.244039

>  <SCORE.RESTR>
0.0407218

>  <SCORE.RESTR.CAVITY>
0.0407218

>  <SCORE.RESTR.norm>
0.000993215

>  <SCORE.SYSTEM>
0.162625

>  <SCORE.SYSTEM.CONST>
0

>  <SCORE.SYSTEM.DIHEDRAL>
0.227853

>  <SCORE.SYSTEM.VDW>
0.0486986

>  <SCORE.SYSTEM.norm>
0.00396647

>  <SCORE.heavy>
41

>  <SCORE.norm>
0.289933

$$$$
570.pdb
  rDOCK(R)          3D
libRbt.so/2013.1/901 2013/11/27
 43 47  0  0  0  0  0  0  0  0999 V2000
   54.6752  -32.7862   22.7326 N   0  0  0  0  0  0
   54.0677  -31.4651   22.3249 C   0  0  0  0  0  0
   52.5243  -31.4057   22.5496 C   0  0  0  0  0  0
   51.7073  -32.2397   21.5564 C   0  0  0  0  0  0
   52.3460  -32.6894   20.3543 C   0  0  0  0  0  0
   50.3347  -32.5703   21.8072 C   0  0  0  0  0  0
   51.6354  -33.4583   19.4131 C   0  0  0  0  0  0
   49.6122  -33.3415   20.8687 C   0  0  0  0  0  0
   50.2646  -33.8035   19.6375 C   0  0  0  0  0  0
   49.6623  -34.5872   18.6072 O   0  0  0  0  0  0
   54.1340  -34.1356   22.8727 C   0  0  0  0  0  0
   54.9391  -35.3132   22.5292 C   0  0  0  0  0  0
   54.3206  -36.6066   22.7019 C   0  0  0  0  0  0
   52.9952  -36.7374   23.1789 C   0  0  0  0  0  0
   52.2378  -35.5969   23.5021 C   0  0  0  0  0  0
   52.7889  -34.3223   23.3556 C   0  0  0  0  0  0
   57.2715  -34.1773   21.4203 C   0  0  0  0  0  0
   58.7030  -34.1732   21.6253 C   0  0  0  0  0  0
   59.5073  -33.1218   21.0984 C   0  0  0  0  0  0
   58.8942  -32.0653   20.3625 C   0  0  0  0  0  0
   57.4850  -32.0606   20.1566 C   0  0  0  0  0  0
   56.6828  -33.1047   20.6795 C   0  0  0  0  0  0
   56.4312  -35.3105   21.9886 C   0  0  0  0  0  0
   57.0207  -36.4103   21.9591 O   0  0  0  0  0  0
   47.7879  -38.0435   15.4363 O   0  0  0  0  0  0
   48.4183  -38.2844   16.6519 C   0  0  0  0  0  0
   48.7391  -37.0043   17.1619 N   0  0  0  0  0  0
   48.3019  -36.0766   16.2409 C   0  0  0  0  0  0
   47.6842  -36.7097   15.1044 C   0  0  0  0  0  0
   47.0677  -36.0768   13.8503 C   0  0  0  0  0  0
   48.6950  -39.5072   17.2628 C   0  0  0  0  0  0
   47.7519  -40.1698   18.1319 C   0  0  0  0  0  0
   48.0874  -41.4116   18.7315 C   0  0  0  0  0  0
   49.3516  -42.0053   18.4798 C   0  0  0  0  0  0
   50.2903  -41.3656   17.6251 C   0  0  0  0  0  0
   49.9675  -40.1247   17.0213 C   0  0  0  0  0  0
   48.4386  -34.1457   17.9712 C   0  0  0  0  0  0
   48.5015  -34.5411   16.4834 C   0  0  0  0  0  0
   54.0112  -29.4167   23.4887 O   0  0  0  0  0  0
   56.0207  -30.2564   23.0172 O   0  0  0  0  0  0
   54.7479  -30.3128   23.0097 C   0  0  0  0  0  0
   55.6339  -32.7254   22.9485 H   0  0  0  0  0  0
   56.4551  -29.5284   23.4164 H   0  0  0  0  0  0
  1  2  1  0  0  0
  1 11  1  0  0  0
  1 42  1  0  0  0
  2  3  1  0  0  0
  2 41  1  0  0  0
  3  4  1  0  0  0
  4  5  2  0  0  0
  4  6  1  0  0  0
  5  7  1  0  0  0
  6  8  2  0  0  0
  7  9  2  0  0  0
  8  9  1  0  0  0
  9 10  1  0  0  0
 10 37  1  0  0  0
 11 12  2  0  0  0
 11 16  1  0  0  0
 12 13  1  0  0  0
 12 23  1  0  0  0
 13 14  2  0  0  0
 14 15  1  0  0  0
 15 16  2  0  0  0
 17 18  2  0  0  0
 17 22  1  0  0  0
 17 23  1  0  0  0
 18 19  1  0  0  0
 19 20  2  0  0  0
 20 21  1  0  0  0
 21 22  2  0  0  0
 23 24  2  0  0  0
 25 26  1  0  0  0
 25 29  1  0  0  0
 26 27  2  0  0  0
 26 31  1  0  0  0
 27 28  1  0  0  0
 28 29  2  0  0  0
 28 38  1  0  0  0
 29 30  1  0  0  0
 31 32  2  0  0  0
 31 36  1  0  0  0
 32 33  1  0  0  0
 33 34  2  0  0  0
 34 35  1  0  0  0
 35 36  2  0  0  0
 37 38  1  0  0  0
 39 41  2  0  0  0
 40 41  1  0  0  0
 40 43  1  0  0  0
M  END
>  <CHROM.0>
179.50919266,176.17310135

>  <CHROM.1>
23.68016666,144.21595426,-72.74141961,-135.51859206,-15.87797214,-125.40940088
143.98077553,-14.73121908,148.01831681,-87.77617693,-32.52372561,73.60867114
177.98749667,52.29534472,-34.99046806,20.07047819,0.66217155,-0.48965035
0.20396777

>  <FORMUL>
      570    C34 H30 N2 O5

>  <HET>
 570  D 200      41

>  <HETNAM>
     570 2-(2-BENZOYL-PHENYLAMINO)-3-{4-[2-(5-METHYL-2-PHENYL-OX
   2 570 AZOL-4-YL)-ETHOXY]-PHENYL}-PROPIONIC ACID

>  <HETSYN>
     570 GI262570

>  <Name>
570.pdb

>  <RI>
0

>  <Rbt.Current_Directory>
/home/malgorzata/Desktop/rDOCK_IFD/Wyniki/14_ppar-gamma/IFD

>  <Rbt.Executable>
rbdock ($Id: //depot/dev/client3/rdock/2013.1/src/exe/rbdock.cxx#4 $)

>  <Rbt.Library>
libRbt.so (2013.1, Build901 2013/11/27)

>  <Rbt.Parameter_File>
/home/malgorzata/Desktop/rDock_2013.1_src/data/scripts/dock.prm

>  <Rbt.Receptor>
cavity.prm

>  <SCORE>
3.845

>  <SCORE.INTER>
-9.79986

>  <SCORE.INTER.CONST>
1

>  <SCORE.INTER.POLAR>
-0.91147

>  <SCORE.INTER.REPUL>
0.0917583

>  <SCORE.INTER.ROT>
12

>  <SCORE.INTER.VDW>
-24.5597

>  <SCORE.INTER.norm>
-0.239021

>  <SCORE.INTRA>
14.4116

>  <SCORE.INTRA.DIHEDRAL>
23.1185

>  <SCORE.INTRA.DIHEDRAL.0>
12.9748

>  <SCORE.INTRA.POLAR>
0.058673

>  <SCORE.INTRA.POLAR.0>
-0.058673

>  <SCORE.INTRA.REPUL>
0.277321

>  <SCORE.INTRA.REPUL.0>
0

>  <SCORE.INTRA.VDW>
1.26629

>  <SCORE.INTRA.VDW.0>
-4.98062

>  <SCORE.INTRA.norm>
0.351503

>  <SCORE.RESTR>
0

>  <SCORE.RESTR.CAVITY>
0

>  <SCORE.RESTR.norm>
0

>  <SCORE.SYSTEM>
-0.76676

>  <SCORE.SYSTEM.CONST>
0

>  <SCORE.SYSTEM.DIHEDRAL>
0.0732181

>  <SCORE.SYSTEM.VDW>
-0.803369

>  <SCORE.SYSTEM.norm>
-0.0187015

>  <SCORE.heavy>
41

>  <SCORE.norm>
0.0937804

$$$$
570.pdb
  rDOCK(R)          3D
libRbt.so/2013.1/901 2013/11/27
 43 47  0  0  0  0  0  0  0  0999 V2000
   53.0071  -32.9350   23.5224 N   0  0  0  0  0  0
   51.7124  -33.2571   24.2300 C   0  0  0  0  0  0
   50.8183  -34.2648   23.4419 C   0  0  0  0  0  0
   50.4346  -33.8022   22.0319 C   0  0  0  0  0  0
   50.8385  -32.4934   21.6087 C   0  0  0  0  0  0
   49.6881  -34.6454   21.1442 C   0  0  0  0  0  0
   50.5091  -32.0258   20.3223 C   0  0  0  0  0  0
   49.3521  -34.1855   19.8506 C   0  0  0  0  0  0
   49.7653  -32.8459   19.4152 C   0  0  0  0  0  0
   49.4999  -32.2535   18.1436 O   0  0  0  0  0  0
   53.6285  -31.6847   23.0931 C   0  0  0  0  0  0
   55.0525  -31.6284   22.7440 C   0  0  0  0  0  0
   55.5782  -30.3492   22.3287 C   0  0  0  0  0  0
   54.7601  -29.1969   22.2622 C   0  0  0  0  0  0
   53.3970  -29.2697   22.6019 C   0  0  0  0  0  0
   52.8374  -30.4829   23.0080 C   0  0  0  0  0  0
   57.5166  -32.9226   22.2824 C   0  0  0  0  0  0
   58.1736  -31.7368   21.7790 C   0  0  0  0  0  0
   59.5208  -31.7952   21.3188 C   0  0  0  0  0  0
   60.2261  -33.0340   21.3557 C   0  0  0  0  0  0
   59.5866  -34.2071   21.8488 C   0  0  0  0  0  0
   58.2471  -34.1520   22.3070 C   0  0  0  0  0  0
   56.0789  -32.8384   22.7717 C   0  0  0  0  0  0
   55.6529  -33.9275   23.2080 O   0  0  0  0  0  0
   46.8255  -36.7616   15.6074 O   0  0  0  0  0  0
   47.1020  -36.1708   14.3796 C   0  0  0  0  0  0
   48.0459  -35.1555   14.6622 N   0  0  0  0  0  0
   48.2782  -35.1807   16.0207 C   0  0  0  0  0  0
   47.5018  -36.2044   16.6714 C   0  0  0  0  0  0
   47.4380  -36.5852   18.1561 C   0  0  0  0  0  0
   46.5781  -36.4819   13.1251 C   0  0  0  0  0  0
   45.5679  -37.4960   12.9374 C   0  0  0  0  0  0
   45.0730  -37.7755   11.6371 C   0  0  0  0  0  0
   45.5703  -37.0599   10.5169 C   0  0  0  0  0  0
   46.5639  -36.0575   10.6860 C   0  0  0  0  0  0
   47.0671  -35.7700   11.9793 C   0  0  0  0  0  0
   48.5976  -32.8951   17.2102 C   0  0  0  0  0  0
   49.2779  -34.1752   16.6884 C   0  0  0  0  0  0
   52.8867  -34.5780   25.7887 O   0  0  0  0  0  0
   51.1877  -33.3651   26.5684 O   0  0  0  0  0  0
   51.9585  -33.7485   25.6291 C   0  0  0  0  0  0
   53.5428  -33.7321   23.3057 H   0  0  0  0  0  0
   50.5186  -32.7321   26.3964 H   0  0  0  0  0  0
  1  2  1  0  0  0
  1 11  1  0  0  0
  1 42  1  0  0  0
  2  3  1  0  0  0
  2 41  1  0  0  0
  3  4  1  0  0  0
  4  5  2  0  0  0
  4  6  1  0  0  0
  5  7  1  0  0  0
  6  8  2  0  0  0
  7  9  2  0  0  0
  8  9  1  0  0  0
  9 10  1  0  0  0
 10 37  1  0  0  0
 11 12  2  0  0  0
 11 16  1  0  0  0
 12 13  1  0  0  0
 12 23  1  0  0  0
 13 14  2  0  0  0
 14 15  1  0  0  0
 15 16  2  0  0  0
 17 18  2  0  0  0
 17 22  1  0  0  0
 17 23  1  0  0  0
 18 19  1  0  0  0
 19 20  2  0  0  0
 20 21  1  0  0  0
 21 22  2  0  0  0
 23 24  2  0  0  0
 25 26  1  0  0  0
 25 29  1  0  0  0
 26 27  2  0  0  0
 26 31  1  0  0  0
 27 28  1  0  0  0
 28 29  2  0  0  0
 28 38  1  0  0  0
 29 30  1  0  0  0
 31 32  2  0  0  0
 31 36  1  0  0  0
 32 33  1  0  0  0
 33 34  2  0  0  0
 34 35  1  0  0  0
 35 36  2  0  0  0
 37 38  1  0  0  0
 39 41  2  0  0  0
 40 41  1  0  0  0
 40 43  1  0  0  0
M  END
>  <CHROM.0>
-65.64971814,175.48712041

>  <CHROM.1>
124.46700244,163.48345338,-58.08926650,-43.61276389,-4.05740002,-171.06723033
-69.82422646,172.05276586,4.99729227,2.75220092,92.92846372,162.67056949
-4.75254023,51.46732530,-33.80643067,19.69707966,0.83632002,0.18335200,1.35610379

>  <FORMUL>
      570    C34 H30 N2 O5

>  <HET>
 570  D 200      41

>  <HETNAM>
     570 2-(2-BENZOYL-PHENYLAMINO)-3-{4-[2-(5-METHYL-2-PHENYL-OX
   2 570 AZOL-4-YL)-ETHOXY]-PHENYL}-PROPIONIC ACID

>  <HETSYN>
     570 GI262570

>  <Name>
570.pdb

>  <RI>
0

>  <Rbt.Current_Directory>
/home/malgorzata/Desktop/rDOCK_IFD/Wyniki/14_ppar-gamma/IFD

>  <Rbt.Executable>
rbdock ($Id: //depot/dev/client3/rdock/2013.1/src/exe/rbdock.cxx#4 $)

>  <Rbt.Library>
libRbt.so (2013.1, Build901 2013/11/27)

>  <Rbt.Parameter_File>
/home/malgorzata/Desktop/rDock_2013.1_src/data/scripts/dock.prm

>  <Rbt.Receptor>
cavity.prm

>  <SCORE>
-19.6713

>  <SCORE.INTER>
-19.4608

>  <SCORE.INTER.CONST>
1

>  <SCORE.INTER.POLAR>
0

>  <SCORE.INTER.REPUL>
0.0751352

>  <SCORE.INTER.ROT>
12

>  <SCORE.INTER.VDW>
-37.2364

>  <SCORE.INTER.norm>
-0.474653

>  <SCORE.INTRA>
0.370213

>  <SCORE.INTRA.DIHEDRAL>
-3.31476

>  <SCORE.INTRA.DIHEDRAL.0>
12.9748

>  <SCORE.INTRA.POLAR>
0.00641516

>  <SCORE.INTRA.POLAR.0>
-0.058673

>  <SCORE.INTRA.REPUL>
0

>  <SCORE.INTRA.REPUL.0>
0

>  <SCORE.INTRA.VDW>
2.00578

>  <SCORE.INTRA.VDW.0>
-4.98062

>  <SCORE.INTRA.norm>
0.00902959

>  <SCORE.RESTR>
0

>  <SCORE.RESTR.CAVITY>
0

>  <SCORE.RESTR.norm>
0

>  <SCORE.SYSTEM>
-0.580759

>  <SCORE.SYSTEM.CONST>
0

>  <SCORE.SYSTEM.DIHEDRAL>
0.256406

>  <SCORE.SYSTEM.VDW>
-0.708962

>  <SCORE.SYSTEM.norm>
-0.0141649

>  <SCORE.heavy>
41

>  <SCORE.norm>
-0.479788

$$$$
570.pdb
  rDOCK(R)          3D
libRbt.so/2013.1/901 2013/11/27
 43 47  0  0  0  0  0  0  0  0999 V2000
   52.1389  -32.8615   21.6200 N   0  0  0  0  0  0
   51.4249  -33.0775   20.3069 C   0  0  0  0  0  0
   49.8935  -33.3267   20.4765 C   0  0  0  0  0  0
   49.2398  -34.0714   19.3071 C   0  0  0  0  0  0
   49.2858  -33.4732   18.0051 C   0  0  0  0  0  0
   48.5919  -35.3370   19.4934 C   0  0  0  0  0  0
   48.6994  -34.1206   16.9010 C   0  0  0  0  0  0
   47.9998  -35.9952   18.3916 C   0  0  0  0  0  0
   48.0465  -35.3846   17.0575 C   0  0  0  0  0  0
   47.4960  -35.9329   15.8597 O   0  0  0  0  0  0
   53.0553  -31.8317   22.1030 C   0  0  0  0  0  0
   54.2433  -32.1842   22.8887 C   0  0  0  0  0  0
   55.0921  -31.0990   23.3213 C   0  0  0  0  0  0
   54.7937  -29.7526   23.0059 C   0  0  0  0  0  0
   53.6494  -29.4334   22.2526 C   0  0  0  0  0  0
   52.7960  -30.4451   21.8074 C   0  0  0  0  0  0
   53.8884  -34.8019   23.8794 C   0  0  0  0  0  0
   54.5046  -36.1013   24.0309 C   0  0  0  0  0  0
   53.7652  -37.1959   24.5652 C   0  0  0  0  0  0
   52.4061  -37.0068   24.9535 C   0  0  0  0  0  0
   51.7908  -35.7308   24.8068 C   0  0  0  0  0  0
   52.5236  -34.6408   24.2759 C   0  0  0  0  0  0
   54.6960  -33.6458   23.3097 C   0  0  0  0  0  0
   55.9143  -33.9036   23.2248 O   0  0  0  0  0  0
   47.3624  -38.8867   11.4739 O   0  0  0  0  0  0
   47.5864  -39.4132   12.7410 C   0  0  0  0  0  0
   47.4083  -38.3266   13.6294 N   0  0  0  0  0  0
   47.1010  -37.2210   12.8658 C   0  0  0  0  0  0
   47.0668  -37.5404   11.4619 C   0  0  0  0  0  0
   46.7765  -36.6310   10.2611 C   0  0  0  0  0  0
   47.9203  -40.7201   13.0951 C   0  0  0  0  0  0
   48.1520  -41.1166   14.4637 C   0  0  0  0  0  0
   48.4940  -42.4601   14.7673 C   0  0  0  0  0  0
   48.6107  -43.4178   13.7265 C   0  0  0  0  0  0
   48.3841  -43.0428   12.3742 C   0  0  0  0  0  0
   48.0432  -41.7040   12.0579 C   0  0  0  0  0  0
   47.9153  -35.4355   14.5659 C   0  0  0  0  0  0
   46.8423  -35.8258   13.5313 C   0  0  0  0  0  0
   50.8618  -30.9877   19.3746 O   0  0  0  0  0  0
   52.6424  -32.0258   18.5274 O   0  0  0  0  0  0
   51.6750  -31.9435   19.3525 C   0  0  0  0  0  0
   51.9472  -33.5585   22.2883 H   0  0  0  0  0  0
   53.1659  -32.8023   18.4951 H   0  0  0  0  0  0
  1  2  1  0  0  0
  1 11  1  0  0  0
  1 42  1  0  0  0
  2  3  1  0  0  0
  2 41  1  0  0  0
  3  4  1  0  0  0
  4  5  2  0  0  0
  4  6  1  0  0  0
  5  7  1  0  0  0
  6  8  2  0  0  0
  7  9  2  0  0  0
  8  9  1  0  0  0
  9 10  1  0  0  0
 10 37  1  0  0  0
 11 12  2  0  0  0
 11 16  1  0  0  0
 12 13  1  0  0  0
 12 23  1  0  0  0
 13 14  2  0  0  0
 14 15  1  0  0  0
 15 16  2  0  0  0
 17 18  2  0  0  0
 17 22  1  0  0  0
 17 23  1  0  0  0
 18 19  1  0  0  0
 19 20  2  0  0  0
 20 21  1  0  0  0
 21 22  2  0  0  0
 23 24  2  0  0  0
 25 26  1  0  0  0
 25 29  1  0  0  0
 26 27  2  0  0  0
 26 31  1  0  0  0
 27 28  1  0  0  0
 28 29  2  0  0  0
 28 38  1  0  0  0
 29 30  1  0  0  0
 31 32  2  0  0  0
 31 36  1  0  0  0
 32 33  1  0  0  0
 33 34  2  0  0  0
 34 35  1  0  0  0
 35 36  2  0  0  0
 37 38  1  0  0  0
 39 41  2  0  0  0
 40 41  1  0  0  0
 40 43  1  0  0  0
M  END
>  <CHROM.0>
67.58582347,179.19654280

>  <CHROM.1>
-129.19525546,-137.57718384,-157.24025042,-91.07688721,-60.54523851,16.99918714
-160.27956306,-45.17044236,172.38830665,178.62722244,47.84880271,-89.88609315
2.61914137,50.44908171,-35.52499396,18.34417827,0.50707787,-1.03896052,-0.00987142

>  <FORMUL>
      570    C34 H30 N2 O5

>  <HET>
 570  D 200      41

>  <HETNAM>
     570 2-(2-BENZOYL-PHENYLAMINO)-3-{4-[2-(5-METHYL-2-PHENYL-OX
   2 570 AZOL-4-YL)-ETHOXY]-PHENYL}-PROPIONIC ACID

>  <HETSYN>
     570 GI262570

>  <Name>
570.pdb

>  <RI>
0

>  <Rbt.Current_Directory>
/home/malgorzata/Desktop/rDOCK_IFD/Wyniki/14_ppar-gamma/IFD

>  <Rbt.Executable>
rbdock ($Id: //depot/dev/client3/rdock/2013.1/src/exe/rbdock.cxx#4 $)

>  <Rbt.Library>
libRbt.so (2013.1, Build901 2013/11/27)

>  <Rbt.Parameter_File>
/home/malgorzata/Desktop/rDock_2013.1_src/data/scripts/dock.prm

>  <Rbt.Receptor>
cavity.prm

>  <SCORE>
-7.12683

>  <SCORE.INTER>
-15.5334

>  <SCORE.INTER.CONST>
1

>  <SCORE.INTER.POLAR>
0

>  <SCORE.INTER.REPUL>
0

>  <SCORE.INTER.ROT>
12

>  <SCORE.INTER.VDW>
-32.9334

>  <SCORE.INTER.norm>
-0.378864

>  <SCORE.INTRA>
9.22742

>  <SCORE.INTRA.DIHEDRAL>
11.3165

>  <SCORE.INTRA.DIHEDRAL.0>
12.9748

>  <SCORE.INTRA.POLAR>
0.058673

>  <SCORE.INTRA.POLAR.0>
-0.058673

>  <SCORE.INTRA.REPUL>
0.00679268

>  <SCORE.INTRA.REPUL.0>
0

>  <SCORE.INTRA.VDW>
3.33573

>  <SCORE.INTRA.VDW.0>
-4.98062

>  <SCORE.INTRA.norm>
0.225059

>  <SCORE.RESTR>
0.0451613

>  <SCORE.RESTR.CAVITY>
0.0451613

>  <SCORE.RESTR.norm>
0.0011015

>  <SCORE.SYSTEM>
-0.865986

>  <SCORE.SYSTEM.CONST>
0

>  <SCORE.SYSTEM.DIHEDRAL>
0.283443

>  <SCORE.SYSTEM.VDW>
-1.00771

>  <SCORE.SYSTEM.norm>
-0.0211216

>  <SCORE.heavy>
41

>  <SCORE.norm>
-0.173825

$$$$
570.pdb
  rDOCK(R)          3D
libRbt.so/2013.1/901 2013/11/27
 43 47  0  0  0  0  0  0  0  0999 V2000
   54.8584  -35.6854   23.3785 N   0  0  0  0  0  0
   55.1491  -35.4382   21.9173 C   0  0  0  0  0  0
   54.9656  -33.9453   21.5007 C   0  0  0  0  0  0
   53.6693  -33.6562   20.7355 C   0  0  0  0  0  0
   53.6733  -32.6097   19.7557 C   0  0  0  0  0  0
   52.4711  -34.4043   20.9823 C   0  0  0  0  0  0
   52.5062  -32.3088   19.0281 C   0  0  0  0  0  0
   51.2940  -34.1100   20.2575 C   0  0  0  0  0  0
   51.2962  -33.0393   19.2533 C   0  0  0  0  0  0
   50.1879  -32.6356   18.4488 O   0  0  0  0  0  0
   53.8025  -35.2307   24.2795 C   0  0  0  0  0  0
   53.4154  -36.0230   25.4522 C   0  0  0  0  0  0
   52.3627  -35.4927   26.2864 C   0  0  0  0  0  0
   51.7275  -34.2643   25.9884 C   0  0  0  0  0  0
   52.1112  -33.5187   24.8589 C   0  0  0  0  0  0
   53.1254  -33.9851   24.0199 C   0  0  0  0  0  0
   55.0347  -38.3188   25.1943 C   0  0  0  0  0  0
   56.1029  -38.9391   25.9462 C   0  0  0  0  0  0
   57.0402  -39.7964   25.3008 C   0  0  0  0  0  0
   56.9226  -40.0442   23.9014 C   0  0  0  0  0  0
   55.8744  -39.4367   23.1527 C   0  0  0  0  0  0
   54.9411  -38.5837   23.7919 C   0  0  0  0  0  0
   54.0428  -37.4092   25.9028 C   0  0  0  0  0  0
   53.6365  -37.8861   26.9824 O   0  0  0  0  0  0
   46.7254  -36.5464   15.8976 O   0  0  0  0  0  0
   47.1203  -36.1303   14.6311 C   0  0  0  0  0  0
   48.2171  -35.2643   14.8519 N   0  0  0  0  0  0
   48.4169  -35.1977   16.2142 C   0  0  0  0  0  0
   47.4666  -36.0104   16.9287 C   0  0  0  0  0  0
   47.3122  -36.2312   18.4389 C   0  0  0  0  0  0
   46.5744  -36.4684   13.3931 C   0  0  0  0  0  0
   45.5088  -37.4323   13.2538 C   0  0  0  0  0  0
   44.9933  -37.7426   11.9685 C   0  0  0  0  0  0
   45.5246  -37.1074   10.8158 C   0  0  0  0  0  0
   46.5729  -36.1550   10.9372 C   0  0  0  0  0  0
   47.0971  -35.8376   12.2151 C   0  0  0  0  0  0
   49.1445  -33.5813   18.1113 C   0  0  0  0  0  0
   49.5600  -34.3137   16.8210 C   0  0  0  0  0  0
   56.6077  -37.1130   21.1293 O   0  0  0  0  0  0
   57.5234  -35.1660   21.7091 O   0  0  0  0  0  0
   56.5181  -35.9299   21.5386 C   0  0  0  0  0  0
   55.5164  -36.2746   23.8135 H   0  0  0  0  0  0
   57.4092  -34.3212   22.0981 H   0  0  0  0  0  0
  1  2  1  0  0  0
  1 11  1  0  0  0
  1 42  1  0  0  0
  2  3  1  0  0  0
  2 41  1  0  0  0
  3  4  1  0  0  0
  4  5  2  0  0  0
  4  6  1  0  0  0
  5  7  1  0  0  0
  6  8  2  0  0  0
  7  9  2  0  0  0
  8  9  1  0  0  0
  9 10  1  0  0  0
 10 37  1  0  0  0
 11 12  2  0  0  0
 11 16  1  0  0  0
 12 13  1  0  0  0
 12 23  1  0  0  0
 13 14  2  0  0  0
 14 15  1  0  0  0
 15 16  2  0  0  0
 17 18  2  0  0  0
 17 22  1  0  0  0
 17 23  1  0  0  0
 18 19  1  0  0  0
 19 20  2  0  0  0
 20 21  1  0  0  0
 21 22  2  0  0  0
 23 24  2  0  0  0
 25 26  1  0  0  0
 25 29  1  0  0  0
 26 27  2  0  0  0
 26 31  1  0  0  0
 27 28  1  0  0  0
 28 29  2  0  0  0
 28 38  1  0  0  0
 29 30  1  0  0  0
 31 32  2  0  0  0
 31 36  1  0  0  0
 32 33  1  0  0  0
 33 34  2  0  0  0
 34 35  1  0  0  0
 35 36  2  0  0  0
 37 38  1  0  0  0
 39 41  2  0  0  0
 40 41  1  0  0  0
 40 43  1  0  0  0
M  END
>  <CHROM.0>
-65.42006999,60.02543674

>  <CHROM.1>
43.42163482,153.63003987,-103.04730425,90.58427365,-148.61353417,152.26154511
-87.94423955,-8.00309368,138.19332822,-4.52472868,140.53900487,-170.56488382
2.40093055,51.76754471,-35.81924114,20.13474125,0.15439262,-0.90352752,0.27141365

>  <FORMUL>
      570    C34 H30 N2 O5

>  <HET>
 570  D 200      41

>  <HETNAM>
     570 2-(2-BENZOYL-PHENYLAMINO)-3-{4-[2-(5-METHYL-2-PHENYL-OX
   2 570 AZOL-4-YL)-ETHOXY]-PHENYL}-PROPIONIC ACID

>  <HETSYN>
     570 GI262570

>  <Name>
570.pdb

>  <RI>
0

>  <Rbt.Current_Directory>
/home/malgorzata/Desktop/rDOCK_IFD/Wyniki/14_ppar-gamma/IFD

>  <Rbt.Executable>
rbdock ($Id: //depot/dev/client3/rdock/2013.1/src/exe/rbdock.cxx#4 $)

>  <Rbt.Library>
libRbt.so (2013.1, Build901 2013/11/27)

>  <Rbt.Parameter_File>
/home/malgorzata/Desktop/rDock_2013.1_src/data/scripts/dock.prm

>  <Rbt.Receptor>
cavity.prm

>  <SCORE>
-10.5294

>  <SCORE.INTER>
-20.0239

>  <SCORE.INTER.CONST>
1

>  <SCORE.INTER.POLAR>
0

>  <SCORE.INTER.REPUL>
0.152227

>  <SCORE.INTER.ROT>
12

>  <SCORE.INTER.VDW>
-38.185

>  <SCORE.INTER.norm>
-0.488388

>  <SCORE.INTRA>
7.73225

>  <SCORE.INTRA.DIHEDRAL>
11.1632

>  <SCORE.INTRA.DIHEDRAL.0>
12.9748

>  <SCORE.INTRA.POLAR>
0.058673

>  <SCORE.INTRA.POLAR.0>
-0.058673

>  <SCORE.INTRA.REPUL>
0

>  <SCORE.INTRA.REPUL.0>
0

>  <SCORE.INTRA.VDW>
1.95118

>  <SCORE.INTRA.VDW.0>
-4.98062

>  <SCORE.INTRA.norm>
0.188592

>  <SCORE.RESTR>
0

>  <SCORE.RESTR.CAVITY>
0

>  <SCORE.RESTR.norm>
0

>  <SCORE.SYSTEM>
1.76221

>  <SCORE.SYSTEM.CONST>
0

>  <SCORE.SYSTEM.DIHEDRAL>
0.144003

>  <SCORE.SYSTEM.VDW>
1.69021

>  <SCORE.SYSTEM.norm>
0.0429808

>  <SCORE.heavy>
41

>  <SCORE.norm>
-0.256815

$$$$
570.pdb
  rDOCK(R)          3D
libRbt.so/2013.1/901 2013/11/27
 43 47  0  0  0  0  0  0  0  0999 V2000
   56.6091  -31.7813   21.0972 N   0  0  0  0  0  0
   55.4073  -32.0436   20.2210 C   0  0  0  0  0  0
   54.1549  -31.2087   20.6338 C   0  0  0  0  0  0
   52.8342  -31.7135   20.0418 C   0  0  0  0  0  0
   52.8275  -32.9776   19.3658 C   0  0  0  0  0  0
   51.6245  -30.9513   20.1514 C   0  0  0  0  0  0
   51.6379  -33.4818   18.8067 C   0  0  0  0  0  0
   50.4248  -31.4483   19.5934 C   0  0  0  0  0  0
   50.4158  -32.7429   18.9013 C   0  0  0  0  0  0
   49.2838  -33.3668   18.2948 O   0  0  0  0  0  0
   57.8570  -32.5050   21.3267 C   0  0  0  0  0  0
   57.8503  -33.8925   21.8038 C   0  0  0  0  0  0
   59.1324  -34.5272   22.0001 C   0  0  0  0  0  0
   60.3450  -33.8439   21.7472 C   0  0  0  0  0  0
   60.3320  -32.5132   21.2913 C   0  0  0  0  0  0
   59.1192  -31.8532   21.0829 C   0  0  0  0  0  0
   55.1665  -34.3592   22.5384 C   0  0  0  0  0  0
   54.0506  -35.2402   22.2744 C   0  0  0  0  0  0
   52.7292  -34.8706   22.6584 C   0  0  0  0  0  0
   52.5068  -33.6211   23.3086 C   0  0  0  0  0  0
   53.5997  -32.7467   23.5716 C   0  0  0  0  0  0
   54.9146  -33.1116   23.1909 C   0  0  0  0  0  0
   56.5698  -34.7738   22.1232 C   0  0  0  0  0  0
   56.7177  -36.0128   22.0922 O   0  0  0  0  0  0
   47.7483  -35.2476   13.0860 O   0  0  0  0  0  0
   47.5980  -36.5695   13.4899 C   0  0  0  0  0  0
   47.7078  -36.5398   14.9001 N   0  0  0  0  0  0
   47.9232  -35.2282   15.2653 C   0  0  0  0  0  0
   47.9620  -34.3589   14.1178 C   0  0  0  0  0  0
   48.1802  -32.8420   14.0496 C   0  0  0  0  0  0
   47.3887  -37.7024   12.7039 C   0  0  0  0  0  0
   47.3668  -39.0356   13.2572 C   0  0  0  0  0  0
   47.1542  -40.1542   12.4102 C   0  0  0  0  0  0
   46.9639  -39.9661   11.0164 C   0  0  0  0  0  0
   46.9813  -38.6593   10.4572 C   0  0  0  0  0  0
   47.1939  -37.5342   11.2924 C   0  0  0  0  0  0
   49.4290  -34.1034   17.0566 C   0  0  0  0  0  0
   48.0992  -34.8268   16.7701 C   0  0  0  0  0  0
   55.5757  -32.8126   17.9998 O   0  0  0  0  0  0
   56.2034  -30.7108   18.3922 O   0  0  0  0  0  0
   55.7300  -31.8323   18.7682 C   0  0  0  0  0  0
   56.5365  -30.9515   21.6219 H   0  0  0  0  0  0
   56.3171  -30.0183   19.0131 H   0  0  0  0  0  0
  1  2  1  0  0  0
  1 11  1  0  0  0
  1 42  1  0  0  0
  2  3  1  0  0  0
  2 41  1  0  0  0
  3  4  1  0  0  0
  4  5  2  0  0  0
  4  6  1  0  0  0
  5  7  1  0  0  0
  6  8  2  0  0  0
  7  9  2  0  0  0
  8  9  1  0  0  0
  9 10  1  0  0  0
 10 37  1  0  0  0
 11 12  2  0  0  0
 11 16  1  0  0  0
 12 13  1  0  0  0
 12 23  1  0  0  0
 13 14  2  0  0  0
 14 15  1  0  0  0
 15 16  2  0  0  0
 17 18  2  0  0  0
 17 22  1  0  0  0
 17 23  1  0  0  0
 18 19  1  0  0  0
 19 20  2  0  0  0
 20 21  1  0  0  0
 21 22  2  0  0  0
 23 24  2  0  0  0
 25 26  1  0  0  0
 25 29  1  0  0  0
 26 27  2  0  0  0
 26 31  1  0  0  0
 27 28  1  0  0  0
 28 29  2  0  0  0
 28 38  1  0  0  0
 29 30  1  0  0  0
 31 32  2  0  0  0
 31 36  1  0  0  0
 32 33  1  0  0  0
 33 34  2  0  0  0
 34 35  1  0  0  0
 35 36  2  0  0  0
 37 38  1  0  0  0
 39 41  2  0  0  0
 40 41  1  0  0  0
 40 43  1  0  0  0
M  END
>  <CHROM.0>
68.51141272,57.34374646

>  <CHROM.1>
162.83792208,-57.82395564,-163.90221778,120.62814358,9.54721808,-37.61769201
171.64115057,-26.14255349,155.71905915,174.44805793,122.85693625,159.37561511
-2.24578138,52.47529395,-34.19800065,18.34923189,0.71559903,-0.36116494,0.74098410

>  <FORMUL>
      570    C34 H30 N2 O5

>  <HET>
 570  D 200      41

>  <HETNAM>
     570 2-(2-BENZOYL-PHENYLAMINO)-3-{4-[2-(5-METHYL-2-PHENYL-OX
   2 570 AZOL-4-YL)-ETHOXY]-PHENYL}-PROPIONIC ACID

>  <HETSYN>
     570 GI262570

>  <Name>
570.pdb

>  <RI>
0

>  <Rbt.Current_Directory>
/home/malgorzata/Desktop/rDOCK_IFD/Wyniki/14_ppar-gamma/IFD

>  <Rbt.Executable>
rbdock ($Id: //depot/dev/client3/rdock/2013.1/src/exe/rbdock.cxx#4 $)

>  <Rbt.Library>
libRbt.so (2013.1, Build901 2013/11/27)

>  <Rbt.Parameter_File>
/home/malgorzata/Desktop/rDock_2013.1_src/data/scripts/dock.prm

>  <Rbt.Receptor>
cavity.prm

>  <SCORE>
-0.691032

>  <SCORE.INTER>
-8.60148

>  <SCORE.INTER.CONST>
1

>  <SCORE.INTER.POLAR>
-0.401727

>  <SCORE.INTER.REPUL>
0

>  <SCORE.INTER.ROT>
12

>  <SCORE.INTER.VDW>
-24.6356

>  <SCORE.INTER.norm>
-0.209792

>  <SCORE.INTRA>
6.37162

>  <SCORE.INTRA.DIHEDRAL>
12.1599

>  <SCORE.INTRA.DIHEDRAL.0>
12.9748

>  <SCORE.INTRA.POLAR>
0.058673

>  <SCORE.INTRA.POLAR.0>
-0.058673

>  <SCORE.INTRA.REPUL>
0

>  <SCORE.INTRA.REPUL.0>
0

>  <SCORE.INTRA.VDW>
0.0921941

>  <SCORE.INTRA.VDW.0>
-4.98062

>  <SCORE.INTRA.norm>
0.155405

>  <SCORE.RESTR>
0

>  <SCORE.RESTR.CAVITY>
0

>  <SCORE.RESTR.norm>
0

>  <SCORE.SYSTEM>
1.53883

>  <SCORE.SYSTEM.CONST>
0

>  <SCORE.SYSTEM.DIHEDRAL>
0.386382

>  <SCORE.SYSTEM.VDW>
1.34564

>  <SCORE.SYSTEM.norm>
0.0375324

>  <SCORE.heavy>
41

>  <SCORE.norm>
-0.0168544

$$$$
570.pdb
  rDOCK(R)          3D
libRbt.so/2013.1/901 2013/11/27
 43 47  0  0  0  0  0  0  0  0999 V2000
   52.2853  -32.1974   21.4801 N   0  0  0  0  0  0
   51.8949  -32.5054   20.0541 C   0  0  0  0  0  0
   50.4392  -32.0611   19.7084 C   0  0  0  0  0  0
   49.5707  -33.1629   19.0909 C   0  0  0  0  0  0
   48.8450  -34.0333   19.9689 C   0  0  0  0  0  0
   49.4758  -33.3341   17.6704 C   0  0  0  0  0  0
   48.0342  -35.0592   19.4473 C   0  0  0  0  0  0
   48.6648  -34.3610   17.1363 C   0  0  0  0  0  0
   47.9204  -35.2529   18.0337 C   0  0  0  0  0  0
   47.0656  -36.3257   17.6376 O   0  0  0  0  0  0
   51.8125  -32.6829   22.7740 C   0  0  0  0  0  0
   52.7271  -32.8114   23.9141 C   0  0  0  0  0  0
   52.1692  -33.2981   25.1539 C   0  0  0  0  0  0
   50.8012  -33.6398   25.2683 C   0  0  0  0  0  0
   49.9393  -33.5112   24.1640 C   0  0  0  0  0  0
   50.4271  -33.0432   22.9422 C   0  0  0  0  0  0
   55.2786  -32.3963   22.7838 C   0  0  0  0  0  0
   54.9849  -33.0561   21.5309 C   0  0  0  0  0  0
   55.9109  -33.0022   20.4494 C   0  0  0  0  0  0
   57.1372  -32.2911   20.6050 C   0  0  0  0  0  0
   57.4352  -31.6393   21.8357 C   0  0  0  0  0  0
   56.5163  -31.6913   22.9128 C   0  0  0  0  0  0
   54.2754  -32.4633   23.9250 C   0  0  0  0  0  0
   54.7985  -32.2611   25.0401 O   0  0  0  0  0  0
   49.5642  -41.5072   16.0127 O   0  0  0  0  0  0
   50.1106  -41.2364   17.2621 C   0  0  0  0  0  0
   49.7110  -39.9125   17.5612 N   0  0  0  0  0  0
   48.9663  -39.4598   16.4932 C   0  0  0  0  0  0
   48.8520  -40.4618   15.4651 C   0  0  0  0  0  0
   48.1290  -40.3953   14.1138 C   0  0  0  0  0  0
   50.8911  -42.0632   18.0697 C   0  0  0  0  0  0
   51.3065  -41.6800   19.3981 C   0  0  0  0  0  0
   52.1048  -42.5588   20.1754 C   0  0  0  0  0  0
   52.4986  -43.8166   19.6490 C   0  0  0  0  0  0
   52.0962  -44.2086   18.3432 C   0  0  0  0  0  0
   51.2998  -43.3393   17.5566 C   0  0  0  0  0  0
   47.5187  -37.6977   17.7345 C   0  0  0  0  0  0
   48.3624  -38.0136   16.4845 C   0  0  0  0  0  0
   53.6711  -32.7114   18.5192 O   0  0  0  0  0  0
   52.9045  -30.6555   18.9081 O   0  0  0  0  0  0
   52.8746  -31.9180   19.0771 C   0  0  0  0  0  0
   53.0075  -31.5322   21.5525 H   0  0  0  0  0  0
   52.2888  -30.1083   19.3548 H   0  0  0  0  0  0
  1  2  1  0  0  0
  1 11  1  0  0  0
  1 42  1  0  0  0
  2  3  1  0  0  0
  2 41  1  0  0  0
  3  4  1  0  0  0
  4  5  2  0  0  0
  4  6  1  0  0  0
  5  7  1  0  0  0
  6  8  2  0  0  0
  7  9  2  0  0  0
  8  9  1  0  0  0
  9 10  1  0  0  0
 10 37  1  0  0  0
 11 12  2  0  0  0
 11 16  1  0  0  0
 12 13  1  0  0  0
 12 23  1  0  0  0
 13 14  2  0  0  0
 14 15  1  0  0  0
 15 16  2  0  0  0
 17 18  2  0  0  0
 17 22  1  0  0  0
 17 23  1  0  0  0
 18 19  1  0  0  0
 19 20  2  0  0  0
 20 21  1  0  0  0
 21 22  2  0  0  0
 23 24  2  0  0  0
 25 26  1  0  0  0
 25 29  1  0  0  0
 26 27  2  0  0  0
 26 31  1  0  0  0
 27 28  1  0  0  0
 28 29  2  0  0  0
 28 38  1  0  0  0
 29 30  1  0  0  0
 31 32  2  0  0  0
 31 36  1  0  0  0
 32 33  1  0  0  0
 33 34  2  0  0  0
 34 35  1  0  0  0
 35 36  2  0  0  0
 37 38  1  0  0  0
 39 41  2  0  0  0
 40 41  1  0  0  0
 40 43  1  0  0  0
M  END
>  <CHROM.0>
68.50151779,-161.37667045

>  <CHROM.1>
65.32991413,147.03786326,-127.62454583,105.26302113,87.62158218,-76.91712247
-82.55323777,-23.71405551,-18.92365687,-175.13324946,-53.38072834,177.63538885
-3.33777049,51.43049950,-35.76778571,19.81704772,1.09826334,-0.63769424,0.22850709

>  <FORMUL>
      570    C34 H30 N2 O5

>  <HET>
 570  D 200      41

>  <HETNAM>
     570 2-(2-BENZOYL-PHENYLAMINO)-3-{4-[2-(5-METHYL-2-PHENYL-OX
   2 570 AZOL-4-YL)-ETHOXY]-PHENYL}-PROPIONIC ACID

>  <HETSYN>
     570 GI262570

>  <Name>
570.pdb

>  <RI>
0

>  <Rbt.Current_Directory>
/home/malgorzata/Desktop/rDOCK_IFD/Wyniki/14_ppar-gamma/IFD

>  <Rbt.Executable>
rbdock ($Id: //depot/dev/client3/rdock/2013.1/src/exe/rbdock.cxx#4 $)

>  <Rbt.Library>
libRbt.so (2013.1, Build901 2013/11/27)

>  <Rbt.Parameter_File>
/home/malgorzata/Desktop/rDock_2013.1_src/data/scripts/dock.prm

>  <Rbt.Receptor>
cavity.prm

>  <SCORE>
-6.69186

>  <SCORE.INTER>
-12.1325

>  <SCORE.INTER.CONST>
1

>  <SCORE.INTER.POLAR>
-0.679436

>  <SCORE.INTER.REPUL>
0

>  <SCORE.INTER.ROT>
12

>  <SCORE.INTER.VDW>
-27.2224

>  <SCORE.INTER.norm>
-0.295915

>  <SCORE.INTRA>
5.39901

>  <SCORE.INTRA.DIHEDRAL>
10.183

>  <SCORE.INTRA.DIHEDRAL.0>
12.9748

>  <SCORE.INTRA.POLAR>
0.058673

>  <SCORE.INTRA.POLAR.0>
-0.058673

>  <SCORE.INTRA.REPUL>
0

>  <SCORE.INTRA.REPUL.0>
0

>  <SCORE.INTRA.VDW>
0.10803

>  <SCORE.INTRA.VDW.0>
-4.98062

>  <SCORE.INTRA.norm>
0.131683

>  <SCORE.RESTR>
0.0490904

>  <SCORE.RESTR.CAVITY>
0.0490904

>  <SCORE.RESTR.norm>
0.00119733

>  <SCORE.SYSTEM>
-0.0074265

>  <SCORE.SYSTEM.CONST>
0

>  <SCORE.SYSTEM.DIHEDRAL>
1.93095

>  <SCORE.SYSTEM.VDW>
-0.972904

>  <SCORE.SYSTEM.norm>
-0.000181134

>  <SCORE.heavy>
41

>  <SCORE.norm>
-0.163216

$$$$
570.pdb
  rDOCK(R)          3D
libRbt.so/2013.1/901 2013/11/27
 43 47  0  0  0  0  0  0  0  0999 V2000
   52.1348  -33.0785   21.3219 N   0  0  0  0  0  0
   51.6004  -31.9422   20.4828 C   0  0  0  0  0  0
   50.0452  -31.9567   20.3520 C   0  0  0  0  0  0
   49.4929  -33.0969   19.4892 C   0  0  0  0  0  0
   49.8097  -33.1108   18.0912 C   0  0  0  0  0  0
   48.6757  -34.1329   20.0507 C   0  0  0  0  0  0
   49.3251  -34.1384   17.2597 C   0  0  0  0  0  0
   48.1840  -35.1689   19.2247 C   0  0  0  0  0  0
   48.5078  -35.1853   17.7930 C   0  0  0  0  0  0
   48.0849  -36.1647   16.8441 O   0  0  0  0  0  0
   51.5035  -34.0420   22.2200 C   0  0  0  0  0  0
   52.2062  -35.2607   22.6369 C   0  0  0  0  0  0
   51.5033  -36.1535   23.5281 C   0  0  0  0  0  0
   50.1929  -35.8708   23.9800 C   0  0  0  0  0  0
   49.5342  -34.6979   23.5687 C   0  0  0  0  0  0
   50.1696  -33.7993   22.7091 C   0  0  0  0  0  0
   54.3856  -37.0315   22.3644 C   0  0  0  0  0  0
   53.6238  -38.2230   22.6662 C   0  0  0  0  0  0
   54.2752  -39.4818   22.8120 C   0  0  0  0  0  0
   55.6904  -39.5659   22.6584 C   0  0  0  0  0  0
   56.4488  -38.3974   22.3622 C   0  0  0  0  0  0
   55.8037  -37.1445   22.2168 C   0  0  0  0  0  0
   53.6707  -35.6979   22.2099 C   0  0  0  0  0  0
   54.3997  -34.8139   21.7149 O   0  0  0  0  0  0
   48.5237  -41.8391   16.3687 O   0  0  0  0  0  0
   48.5261  -41.1248   15.1759 C   0  0  0  0  0  0
   48.5600  -39.7637   15.5602 N   0  0  0  0  0  0
   48.5672  -39.7286   16.9382 C   0  0  0  0  0  0
   48.5386  -41.0537   17.5014 C   0  0  0  0  0  0
   48.5293  -41.4888   18.9724 C   0  0  0  0  0  0
   48.4967  -41.6109   13.8690 C   0  0  0  0  0  0
   48.4065  -43.0201   13.5687 C   0  0  0  0  0  0
   48.3849  -43.4603   12.2197 C   0  0  0  0  0  0
   48.4533  -42.5169   11.1616 C   0  0  0  0  0  0
   48.5409  -41.1259   11.4416 C   0  0  0  0  0  0
   48.5645  -40.6738   12.7846 C   0  0  0  0  0  0
   47.4738  -37.4000   17.2888 C   0  0  0  0  0  0
   48.5972  -38.3658   17.7117 C   0  0  0  0  0  0
   52.7950  -29.9276   20.2228 O   0  0  0  0  0  0
   51.7980  -30.2654   22.1868 O   0  0  0  0  0  0
   52.0773  -30.6111   20.9927 C   0  0  0  0  0  0
   53.1098  -33.1934   21.2485 H   0  0  0  0  0  0
   52.1759  -29.4887   22.5503 H   0  0  0  0  0  0
  1  2  1  0  0  0
  1 11  1  0  0  0
  1 42  1  0  0  0
  2  3  1  0  0  0
  2 41  1  0  0  0
  3  4  1  0  0  0
  4  5  2  0  0  0
  4  6  1  0  0  0
  5  7  1  0  0  0
  6  8  2  0  0  0
  7  9  2  0  0  0
  8  9  1  0  0  0
  9 10  1  0  0  0
 10 37  1  0  0  0
 11 12  2  0  0  0
 11 16  1  0  0  0
 12 13  1  0  0  0
 12 23  1  0  0  0
 13 14  2  0  0  0
 14 15  1  0  0  0
 15 16  2  0  0  0
 17 18  2  0  0  0
 17 22  1  0  0  0
 17 23  1  0  0  0
 18 19  1  0  0  0
 19 20  2  0  0  0
 20 21  1  0  0  0
 21 22  2  0  0  0
 23 24  2  0  0  0
 25 26  1  0  0  0
 25 29  1  0  0  0
 26 27  2  0  0  0
 26 31  1  0  0  0
 27 28  1  0  0  0
 28 29  2  0  0  0
 28 38  1  0  0  0
 29 30  1  0  0  0
 31 32  2  0  0  0
 31 36  1  0  0  0
 32 33  1  0  0  0
 33 34  2  0  0  0
 34 35  1  0  0  0
 35 36  2  0  0  0
 37 38  1  0  0  0
 39 41  2  0  0  0
 40 41  1  0  0  0
 40 43  1  0  0  0
M  END
>  <CHROM.0>
65.20233445,-173.64673472

>  <CHROM.1>
-12.64642097,163.67510555,-70.37190270,117.43100853,-65.24589634,168.29076724
-81.16552701,-167.11504602,15.67412870,2.38506257,53.67114564,-122.97707703
172.53061949,50.59196120,-36.81093925,19.09812364,1.03340650,-0.84209613
0.37837316

>  <FORMUL>
      570    C34 H30 N2 O5

>  <HET>
 570  D 200      41

>  <HETNAM>
     570 2-(2-BENZOYL-PHENYLAMINO)-3-{4-[2-(5-METHYL-2-PHENYL-OX
   2 570 AZOL-4-YL)-ETHOXY]-PHENYL}-PROPIONIC ACID

>  <HETSYN>
     570 GI262570

>  <Name>
570.pdb

>  <RI>
0

>  <Rbt.Current_Directory>
/home/malgorzata/Desktop/rDOCK_IFD/Wyniki/14_ppar-gamma/IFD

>  <Rbt.Executable>
rbdock ($Id: //depot/dev/client3/rdock/2013.1/src/exe/rbdock.cxx#4 $)

>  <Rbt.Library>
libRbt.so (2013.1, Build901 2013/11/27)

>  <Rbt.Parameter_File>
/home/malgorzata/Desktop/rDock_2013.1_src/data/scripts/dock.prm

>  <Rbt.Receptor>
cavity.prm

>  <SCORE>
-7.69389

>  <SCORE.INTER>
-9.5

>  <SCORE.INTER.CONST>
1

>  <SCORE.INTER.POLAR>
0

>  <SCORE.INTER.REPUL>
0

>  <SCORE.INTER.ROT>
12

>  <SCORE.INTER.VDW>
-26.9

>  <SCORE.INTER.norm>
-0.231707

>  <SCORE.INTRA>
2.34961

>  <SCORE.INTRA.DIHEDRAL>
1.99468

>  <SCORE.INTRA.DIHEDRAL.0>
12.9748

>  <SCORE.INTRA.POLAR>
0.00399739

>  <SCORE.INTRA.POLAR.0>
-0.058673

>  <SCORE.INTRA.REPUL>
0

>  <SCORE.INTRA.REPUL.0>
0

>  <SCORE.INTRA.VDW>
1.33868

>  <SCORE.INTRA.VDW.0>
-4.98062

>  <SCORE.INTRA.norm>
0.0573077

>  <SCORE.RESTR>
0.276121

>  <SCORE.RESTR.CAVITY>
0.276121

>  <SCORE.RESTR.norm>
0.00673465

>  <SCORE.SYSTEM>
-0.81962

>  <SCORE.SYSTEM.CONST>
0

>  <SCORE.SYSTEM.DIHEDRAL>
0.330091

>  <SCORE.SYSTEM.VDW>
-0.984666

>  <SCORE.SYSTEM.norm>
-0.0199907

>  <SCORE.heavy>
41

>  <SCORE.norm>
-0.187656

$$$$
