570.pdb
  rDOCK(R)          3D
libRbt.so/2013.1/901 2013/11/27
 43 47  0  0  0  0  0  0  0  0999 V2000
   52.5539  -33.4910   23.7652 N   0  0  0  0  0  0
   51.3148  -32.6278   23.7797 C   0  0  0  0  0  0
   50.6889  -32.4314   22.3636 C   0  0  0  0  0  0
   50.3262  -33.7360   21.6452 C   0  0  0  0  0  0
   51.1765  -34.1910   20.5845 C   0  0  0  0  0  0
   49.1664  -34.4955   22.0118 C   0  0  0  0  0  0
   50.8833  -35.3838   19.8964 C   0  0  0  0  0  0
   48.8629  -35.6942   21.3272 C   0  0  0  0  0  0
   49.7328  -36.1621   20.2413 C   0  0  0  0  0  0
   49.5519  -37.3487   19.4680 O   0  0  0  0  0  0
   53.7400  -33.5534   24.6155 C   0  0  0  0  0  0
   54.8173  -34.5113   24.3422 C   0  0  0  0  0  0
   55.9516  -34.4986   25.2358 C   0  0  0  0  0  0
   56.0240  -33.6050   26.3301 C   0  0  0  0  0  0
   54.9809  -32.6943   26.5774 C   0  0  0  0  0  0
   53.8620  -32.6633   25.7425 C   0  0  0  0  0  0
   53.7854  -36.4841   22.6093 C   0  0  0  0  0  0
   52.5148  -36.5828   23.2927 C   0  0  0  0  0  0
   51.4895  -37.4383   22.7957 C   0  0  0  0  0  0
   51.7195  -38.2029   21.6142 C   0  0  0  0  0  0
   52.9682  -38.1128   20.9354 C   0  0  0  0  0  0
   53.9895  -37.2631   21.4273 C   0  0  0  0  0  0
   54.8657  -35.5627   23.1546 C   0  0  0  0  0  0
   55.9679  -35.7251   22.5917 O   0  0  0  0  0  0
   46.3951  -38.8826   15.8555 O   0  0  0  0  0  0
   47.1637  -37.7247   15.8150 C   0  0  0  0  0  0
   48.0527  -37.8328   16.9104 N   0  0  0  0  0  0
   47.7732  -39.0230   17.5472 C   0  0  0  0  0  0
   46.7006  -39.7314   16.8977 C   0  0  0  0  0  0
   46.0602  -41.0775   17.2598 C   0  0  0  0  0  0
   47.0967  -36.6655   14.9103 C   0  0  0  0  0  0
   47.9513  -35.5063   15.0104 C   0  0  0  0  0  0
   47.8374  -34.4544   14.0646 C   0  0  0  0  0  0
   46.8823  -34.5380   13.0182 C   0  0  0  0  0  0
   46.0349  -35.6737   12.9057 C   0  0  0  0  0  0
   46.1380  -36.7302   13.8448 C   0  0  0  0  0  0
   48.6351  -38.3787   19.9100 C   0  0  0  0  0  0
   48.5733  -39.4658   18.8199 C   0  0  0  0  0  0
   49.6813  -32.3130   25.4488 O   0  0  0  0  0  0
   50.1293  -34.4139   24.8564 O   0  0  0  0  0  0
   50.2894  -33.1549   24.7442 C   0  0  0  0  0  0
   52.5645  -34.1471   23.0311 H   0  0  0  0  0  0
   50.6109  -34.9985   24.3047 H   0  0  0  0  0  0
  1  2  1  0  0  0
  1 11  1  0  0  0
  1 42  1  0  0  0
  2  3  1  0  0  0
  2 41  1  0  0  0
  3  4  1  0  0  0
  4  5  2  0  0  0
  4  6  1  0  0  0
  5  7  1  0  0  0
  6  8  2  0  0  0
  7  9  2  0  0  0
  8  9  1  0  0  0
  9 10  1  0  0  0
 10 37  1  0  0  0
 11 12  2  0  0  0
 11 16  1  0  0  0
 12 13  1  0  0  0
 12 23  1  0  0  0
 13 14  2  0  0  0
 14 15  1  0  0  0
 15 16  2  0  0  0
 17 18  2  0  0  0
 17 22  1  0  0  0
 17 23  1  0  0  0
 18 19  1  0  0  0
 19 20  2  0  0  0
 20 21  1  0  0  0
 21 22  2  0  0  0
 23 24  2  0  0  0
 25 26  1  0  0  0
 25 29  1  0  0  0
 26 27  2  0  0  0
 26 31  1  0  0  0
 27 28  1  0  0  0
 28 29  2  0  0  0
 28 38  1  0  0  0
 29 30  1  0  0  0
 31 32  2  0  0  0
 31 36  1  0  0  0
 32 33  1  0  0  0
 33 34  2  0  0  0
 34 35  1  0  0  0
 35 36  2  0  0  0
 37 38  1  0  0  0
 39 41  2  0  0  0
 40 41  1  0  0  0
 40 43  1  0  0  0
M  END
>  <CHROM.0>
120.73824065,-83.15856327,-168.95833735

>  <CHROM.1>
151.78731445,-179.30311301,56.78894962,138.42738417,-104.22402105,165.09212287
175.45692568,-43.48884552,-6.81717191,178.76027406,51.07221030,-73.43812449
-3.65212541,50.51814537,-35.81876410,20.61502433,0.56713117,-0.84033843,0.35146546

>  <FORMUL>
      570    C34 H30 N2 O5

>  <HET>
 570  D 200      41

>  <HETNAM>
     570 2-(2-BENZOYL-PHENYLAMINO)-3-{4-[2-(5-METHYL-2-PHENYL-OX
   2 570 AZOL-4-YL)-ETHOXY]-PHENYL}-PROPIONIC ACID

>  <HETSYN>
     570 GI262570

>  <Name>
570.pdb

>  <RI>
1.6766e+07

>  <Rbt.Current_Directory>
/home/malgorzata/Desktop/rDOCK_IFD/Wyniki/14_ppar-gamma/IFD

>  <Rbt.Executable>
rbdock ($Id: //depot/dev/client3/rdock/2013.1/src/exe/rbdock.cxx#4 $)

>  <Rbt.Library>
libRbt.so (2013.1, Build901 2013/11/27)

>  <Rbt.Parameter_File>
/home/malgorzata/Desktop/rDock_2013.1_src/data/scripts/dock.prm

>  <Rbt.Receptor>
cavity.prm

>  <SCORE>
6.79659

>  <SCORE.INTER>
10.453

>  <SCORE.INTER.CONST>
1

>  <SCORE.INTER.POLAR>
0

>  <SCORE.INTER.REPUL>
0

>  <SCORE.INTER.ROT>
12

>  <SCORE.INTER.VDW>
-6.94699

>  <SCORE.INTER.norm>
0.254951

>  <SCORE.INTRA>
-3.59096

>  <SCORE.INTRA.DIHEDRAL>
-1.08545

>  <SCORE.INTRA.DIHEDRAL.0>
12.9748

>  <SCORE.INTRA.POLAR>
0.058673

>  <SCORE.INTRA.POLAR.0>
-0.058673

>  <SCORE.INTRA.REPUL>
0

>  <SCORE.INTRA.REPUL.0>
0

>  <SCORE.INTRA.VDW>
-3.24772

>  <SCORE.INTRA.VDW.0>
-4.98062

>  <SCORE.INTRA.norm>
-0.0875844

>  <SCORE.RESTR>
0

>  <SCORE.RESTR.CAVITY>
0

>  <SCORE.RESTR.norm>
0

>  <SCORE.SYSTEM>
-0.0654553

>  <SCORE.SYSTEM.CONST>
0

>  <SCORE.SYSTEM.DIHEDRAL>
1.20063

>  <SCORE.SYSTEM.VDW>
-0.665771

>  <SCORE.SYSTEM.norm>
-0.00159647

>  <SCORE.heavy>
41

>  <SCORE.norm>
0.165771

$$$$
570.pdb
  rDOCK(R)          3D
libRbt.so/2013.1/901 2013/11/27
 43 47  0  0  0  0  0  0  0  0999 V2000
   47.6708  -39.5979   20.0838 N   0  0  0  0  0  0
   49.0748  -39.1663   20.4349 C   0  0  0  0  0  0
   49.5406  -39.6779   21.8340 C   0  0  0  0  0  0
   51.0248  -39.4389   22.1336 C   0  0  0  0  0  0
   51.4638  -38.0974   22.3839 C   0  0  0  0  0  0
   51.9660  -40.5202   22.1653 C   0  0  0  0  0  0
   52.8173  -37.8298   22.6639 C   0  0  0  0  0  0
   53.3272  -40.2624   22.4453 C   0  0  0  0  0  0
   53.7786  -38.8895   22.7025 C   0  0  0  0  0  0
   55.1147  -38.4829   22.9991 O   0  0  0  0  0  0
   46.7227  -39.1777   19.0552 C   0  0  0  0  0  0
   45.4069  -39.8155   18.9332 C   0  0  0  0  0  0
   44.5358  -39.3324   17.8876 C   0  0  0  0  0  0
   44.9307  -38.2914   17.0148 C   0  0  0  0  0  0
   46.1968  -37.6926   17.1460 C   0  0  0  0  0  0
   47.0771  -38.1205   18.1419 C   0  0  0  0  0  0
   43.4621  -41.6332   19.8676 C   0  0  0  0  0  0
   42.4559  -41.2180   18.9155 C   0  0  0  0  0  0
   41.1621  -41.8149   18.9223 C   0  0  0  0  0  0
   40.8583  -42.8303   19.8763 C   0  0  0  0  0  0
   41.8428  -43.2446   20.8183 C   0  0  0  0  0  0
   43.1300  -42.6529   20.8140 C   0  0  0  0  0  0
   44.8380  -40.9856   19.8417 C   0  0  0  0  0  0
   45.5981  -41.4316   20.7257 O   0  0  0  0  0  0
   57.4284  -37.0618   26.8005 O   0  0  0  0  0  0
   56.8236  -36.0729   26.0328 C   0  0  0  0  0  0
   56.7773  -36.6001   24.7207 N   0  0  0  0  0  0
   57.3536  -37.8516   24.7631 C   0  0  0  0  0  0
   57.7941  -38.1866   26.0927 C   0  0  0  0  0  0
   58.4867  -39.4580   26.5998 C   0  0  0  0  0  0
   56.3571  -34.8214   26.4342 C   0  0  0  0  0  0
   55.7127  -33.9061   25.5226 C   0  0  0  0  0  0
   55.2611  -32.6422   25.9837 C   0  0  0  0  0  0
   55.4425  -32.2735   27.3422 C   0  0  0  0  0  0
   56.0739  -33.1646   28.2521 C   0  0  0  0  0  0
   56.5304  -34.4291   27.8035 C   0  0  0  0  0  0
   56.1728  -39.4656   23.1072 C   0  0  0  0  0  0
   57.4764  -38.7289   23.4701 C   0  0  0  0  0  0
   49.6966  -40.4688   18.5720 O   0  0  0  0  0  0
   51.2157  -39.0414   19.3598 O   0  0  0  0  0  0
   50.0559  -39.5689   19.3696 C   0  0  0  0  0  0
   47.3229  -40.3092   20.6688 H   0  0  0  0  0  0
   51.8454  -39.3061   18.7184 H   0  0  0  0  0  0
  1  2  1  0  0  0
  1 11  1  0  0  0
  1 42  1  0  0  0
  2  3  1  0  0  0
  2 41  1  0  0  0
  3  4  1  0  0  0
  4  5  2  0  0  0
  4  6  1  0  0  0
  5  7  1  0  0  0
  6  8  2  0  0  0
  7  9  2  0  0  0
  8  9  1  0  0  0
  9 10  1  0  0  0
 10 37  1  0  0  0
 11 12  2  0  0  0
 11 16  1  0  0  0
 12 13  1  0  0  0
 12 23  1  0  0  0
 13 14  2  0  0  0
 14 15  1  0  0  0
 15 16  2  0  0  0
 17 18  2  0  0  0
 17 22  1  0  0  0
 17 23  1  0  0  0
 18 19  1  0  0  0
 19 20  2  0  0  0
 20 21  1  0  0  0
 21 22  2  0  0  0
 23 24  2  0  0  0
 25 26  1  0  0  0
 25 29  1  0  0  0
 26 27  2  0  0  0
 26 31  1  0  0  0
 27 28  1  0  0  0
 28 29  2  0  0  0
 28 38  1  0  0  0
 29 30  1  0  0  0
 31 32  2  0  0  0
 31 36  1  0  0  0
 32 33  1  0  0  0
 33 34  2  0  0  0
 34 35  1  0  0  0
 35 36  2  0  0  0
 37 38  1  0  0  0
 39 41  2  0  0  0
 40 41  1  0  0  0
 40 43  1  0  0  0
M  END
>  <CHROM.0>
-101.55883602,-147.72894967,-136.93742524

>  <CHROM.1>
166.10884321,178.51378434,171.31684040,-18.60394355,71.38004741,178.12617339
-178.45104905,174.57727913,2.66971654,-178.27832217,-80.43403573,55.15298180
177.90822567,50.76885887,-38.65730199,22.14368164,2.65001448,0.31895340,-2.71607815

>  <FORMUL>
      570    C34 H30 N2 O5

>  <HET>
 570  D 200      41

>  <HETNAM>
     570 2-(2-BENZOYL-PHENYLAMINO)-3-{4-[2-(5-METHYL-2-PHENYL-OX
   2 570 AZOL-4-YL)-ETHOXY]-PHENYL}-PROPIONIC ACID

>  <HETSYN>
     570 GI262570

>  <Name>
570.pdb

>  <RI>
1.6766e+07

>  <Rbt.Current_Directory>
/home/malgorzata/Desktop/rDOCK_IFD/Wyniki/14_ppar-gamma/IFD

>  <Rbt.Executable>
rbdock ($Id: //depot/dev/client3/rdock/2013.1/src/exe/rbdock.cxx#4 $)

>  <Rbt.Library>
libRbt.so (2013.1, Build901 2013/11/27)

>  <Rbt.Parameter_File>
/home/malgorzata/Desktop/rDock_2013.1_src/data/scripts/dock.prm

>  <Rbt.Receptor>
cavity.prm

>  <SCORE>
3.83362

>  <SCORE.INTER>
6.81612

>  <SCORE.INTER.CONST>
1

>  <SCORE.INTER.POLAR>
-0.0235491

>  <SCORE.INTER.REPUL>
0

>  <SCORE.INTER.ROT>
12

>  <SCORE.INTER.VDW>
-10.5038

>  <SCORE.INTER.norm>
0.166247

>  <SCORE.INTRA>
-2.91737

>  <SCORE.INTRA.DIHEDRAL>
-7.70541

>  <SCORE.INTRA.DIHEDRAL.0>
12.9748

>  <SCORE.INTRA.POLAR>
-0.0453359

>  <SCORE.INTRA.POLAR.0>
-0.058673

>  <SCORE.INTRA.REPUL>
0

>  <SCORE.INTRA.REPUL.0>
0

>  <SCORE.INTRA.VDW>
1.08947

>  <SCORE.INTRA.VDW.0>
-4.98062

>  <SCORE.INTRA.norm>
-0.0711555

>  <SCORE.RESTR>
0.00548075

>  <SCORE.RESTR.CAVITY>
0.00548075

>  <SCORE.RESTR.norm>
0.000133677

>  <SCORE.SYSTEM>
-0.0706128

>  <SCORE.SYSTEM.CONST>
0

>  <SCORE.SYSTEM.DIHEDRAL>
1.20021

>  <SCORE.SYSTEM.VDW>
-0.67072

>  <SCORE.SYSTEM.norm>
-0.00172226

>  <SCORE.heavy>
41

>  <SCORE.norm>
0.0935028

$$$$
570.pdb
  rDOCK(R)          3D
libRbt.so/2013.1/901 2013/11/27
 43 47  0  0  0  0  0  0  0  0999 V2000
   51.0151  -37.3332   17.9635 N   0  0  0  0  0  0
   51.0599  -38.4658   16.9654 C   0  0  0  0  0  0
   51.2644  -39.8618   17.6326 C   0  0  0  0  0  0
   52.2646  -39.8681   18.7941 C   0  0  0  0  0  0
   53.5673  -39.3105   18.5769 C   0  0  0  0  0  0
   51.9223  -40.4160   20.0744 C   0  0  0  0  0  0
   54.5187  -39.2939   19.6145 C   0  0  0  0  0  0
   52.8702  -40.4045   21.1227 C   0  0  0  0  0  0
   54.2045  -39.8334   20.9024 C   0  0  0  0  0  0
   55.2562  -39.7524   21.8646 O   0  0  0  0  0  0
   50.7861  -35.8962   17.8365 C   0  0  0  0  0  0
   51.0257  -34.9893   18.9647 C   0  0  0  0  0  0
   50.7736  -33.5845   18.7450 C   0  0  0  0  0  0
   50.3130  -33.0995   17.4984 C   0  0  0  0  0  0
   50.0876  -33.9841   16.4282 C   0  0  0  0  0  0
   50.3177  -35.3523   16.5866 C   0  0  0  0  0  0
   51.9136  -34.5310   21.6032 C   0  0  0  0  0  0
   51.7806  -33.0937   21.5164 C   0  0  0  0  0  0
   52.1213  -32.2663   22.6252 C   0  0  0  0  0  0
   52.5973  -32.8621   23.8302 C   0  0  0  0  0  0
   52.7325  -34.2767   23.9243 C   0  0  0  0  0  0
   52.3945  -35.1018   22.8233 C   0  0  0  0  0  0
   51.5417  -35.3966   20.4091 C   0  0  0  0  0  0
   51.7380  -36.6121   20.6142 O   0  0  0  0  0  0
   56.7681  -36.4889   25.3044 O   0  0  0  0  0  0
   56.2723  -36.2116   24.0354 C   0  0  0  0  0  0
   56.0541  -37.4760   23.4395 N   0  0  0  0  0  0
   56.4309  -38.4313   24.3590 C   0  0  0  0  0  0
   56.9052  -37.8325   25.5800 C   0  0  0  0  0  0
   57.4257  -38.5031   26.8577 C   0  0  0  0  0  0
   56.0344  -34.9708   23.4447 C   0  0  0  0  0  0
   56.2481  -33.7262   24.1443 C   0  0  0  0  0  0
   55.9852  -32.4913   23.4963 C   0  0  0  0  0  0
   55.5101  -32.4759   22.1590 C   0  0  0  0  0  0
   55.2963  -33.6931   21.4567 C   0  0  0  0  0  0
   55.5539  -34.9329   22.0933 C   0  0  0  0  0  0
   55.0846  -40.3167   23.1871 C   0  0  0  0  0  0
   56.3265  -39.9592   24.0260 C   0  0  0  0  0  0
   50.0304  -38.4987   14.8459 O   0  0  0  0  0  0
   48.6874  -38.3817   16.6202 O   0  0  0  0  0  0
   49.8407  -38.4718   16.0862 C   0  0  0  0  0  0
   51.1727  -37.6233   18.8910 H   0  0  0  0  0  0
   48.6057  -38.3247   17.5520 H   0  0  0  0  0  0
  1  2  1  0  0  0
  1 11  1  0  0  0
  1 42  1  0  0  0
  2  3  1  0  0  0
  2 41  1  0  0  0
  3  4  1  0  0  0
  4  5  2  0  0  0
  4  6  1  0  0  0
  5  7  1  0  0  0
  6  8  2  0  0  0
  7  9  2  0  0  0
  8  9  1  0  0  0
  9 10  1  0  0  0
 10 37  1  0  0  0
 11 12  2  0  0  0
 11 16  1  0  0  0
 12 13  1  0  0  0
 12 23  1  0  0  0
 13 14  2  0  0  0
 14 15  1  0  0  0
 15 16  2  0  0  0
 17 18  2  0  0  0
 17 22  1  0  0  0
 17 23  1  0  0  0
 18 19  1  0  0  0
 19 20  2  0  0  0
 20 21  1  0  0  0
 21 22  2  0  0  0
 23 24  2  0  0  0
 25 26  1  0  0  0
 25 29  1  0  0  0
 26 27  2  0  0  0
 26 31  1  0  0  0
 27 28  1  0  0  0
 28 29  2  0  0  0
 28 38  1  0  0  0
 29 30  1  0  0  0
 31 32  2  0  0  0
 31 36  1  0  0  0
 32 33  1  0  0  0
 33 34  2  0  0  0
 34 35  1  0  0  0
 35 36  2  0  0  0
 37 38  1  0  0  0
 39 41  2  0  0  0
 40 41  1  0  0  0
 40 43  1  0  0  0
M  END
>  <CHROM.0>
-79.01998263,-96.82381171,-170.87224351

>  <CHROM.1>
-176.66490878,-169.43120335,-40.14497145,127.73470836,-52.22639838,-177.23919102
-174.82935920,175.05050724,1.63447439,-2.22178321,-37.20864101,68.70944418
-0.85083227,53.21877757,-36.61244649,20.91023643,-2.85178221,-0.87730926
0.26688704

>  <FORMUL>
      570    C34 H30 N2 O5

>  <HET>
 570  D 200      41

>  <HETNAM>
     570 2-(2-BENZOYL-PHENYLAMINO)-3-{4-[2-(5-METHYL-2-PHENYL-OX
   2 570 AZOL-4-YL)-ETHOXY]-PHENYL}-PROPIONIC ACID

>  <HETSYN>
     570 GI262570

>  <Name>
570.pdb

>  <RI>
1.6766e+07

>  <Rbt.Current_Directory>
/home/malgorzata/Desktop/rDOCK_IFD/Wyniki/14_ppar-gamma/IFD

>  <Rbt.Executable>
rbdock ($Id: //depot/dev/client3/rdock/2013.1/src/exe/rbdock.cxx#4 $)

>  <Rbt.Library>
libRbt.so (2013.1, Build901 2013/11/27)

>  <Rbt.Parameter_File>
/home/malgorzata/Desktop/rDock_2013.1_src/data/scripts/dock.prm

>  <Rbt.Receptor>
cavity.prm

>  <SCORE>
2.7801

>  <SCORE.INTER>
8.15071

>  <SCORE.INTER.CONST>
1

>  <SCORE.INTER.POLAR>
0

>  <SCORE.INTER.REPUL>
0

>  <SCORE.INTER.ROT>
12

>  <SCORE.INTER.VDW>
-9.24929

>  <SCORE.INTER.norm>
0.198798

>  <SCORE.INTRA>
-5.34612

>  <SCORE.INTRA.DIHEDRAL>
-5.62846

>  <SCORE.INTRA.DIHEDRAL.0>
12.9748

>  <SCORE.INTRA.POLAR>
-0.0373621

>  <SCORE.INTRA.POLAR.0>
-0.058673

>  <SCORE.INTRA.REPUL>
0

>  <SCORE.INTRA.REPUL.0>
0

>  <SCORE.INTRA.VDW>
-2.40486

>  <SCORE.INTRA.VDW.0>
-4.98062

>  <SCORE.INTRA.norm>
-0.130393

>  <SCORE.RESTR>
0

>  <SCORE.RESTR.CAVITY>
0

>  <SCORE.RESTR.norm>
0

>  <SCORE.SYSTEM>
-0.0244969

>  <SCORE.SYSTEM.CONST>
0

>  <SCORE.SYSTEM.DIHEDRAL>
1.20016

>  <SCORE.SYSTEM.VDW>
-0.624575

>  <SCORE.SYSTEM.norm>
-0.000597486

>  <SCORE.heavy>
41

>  <SCORE.norm>
0.0678073

$$$$
570.pdb
  rDOCK(R)          3D
libRbt.so/2013.1/901 2013/11/27
 43 47  0  0  0  0  0  0  0  0999 V2000
   57.0800  -36.8171   24.5052 N   0  0  0  0  0  0
   58.0768  -37.8991   24.1638 C   0  0  0  0  0  0
   57.4129  -39.2930   23.9351 C   0  0  0  0  0  0
   56.3102  -39.3021   22.8705 C   0  0  0  0  0  0
   55.2129  -40.2105   23.0312 C   0  0  0  0  0  0
   56.3599  -38.4300   21.7332 C   0  0  0  0  0  0
   54.1768  -40.2539   22.0790 C   0  0  0  0  0  0
   55.3250  -38.4658   20.7713 C   0  0  0  0  0  0
   54.2001  -39.3948   20.9344 C   0  0  0  0  0  0
   53.0895  -39.5379   20.0487 O   0  0  0  0  0  0
   57.0677  -35.7448   25.4969 C   0  0  0  0  0  0
   56.0224  -34.7152   25.4850 C   0  0  0  0  0  0
   56.0908  -33.6959   26.5056 C   0  0  0  0  0  0
   57.1208  -33.6850   27.4754 C   0  0  0  0  0  0
   58.1154  -34.6797   27.4705 C   0  0  0  0  0  0
   58.0947  -35.6899   26.5066 C   0  0  0  0  0  0
   53.5626  -33.7460   24.4999 C   0  0  0  0  0  0
   53.3885  -32.7823   25.5639 C   0  0  0  0  0  0
   52.2245  -31.9622   25.6152 C   0  0  0  0  0  0
   51.2236  -32.0939   24.6080 C   0  0  0  0  0  0
   51.3862  -33.0411   23.5571 C   0  0  0  0  0  0
   52.5426  -33.8579   23.5036 C   0  0  0  0  0  0
   54.8140  -34.6097   24.4617 C   0  0  0  0  0  0
   54.8345  -35.3869   23.4852 O   0  0  0  0  0  0
   50.7149  -43.5717   16.3623 O   0  0  0  0  0  0
   50.3216  -44.0399   17.6110 C   0  0  0  0  0  0
   50.6182  -42.9885   18.5100 N   0  0  0  0  0  0
   51.1723  -41.9644   17.7722 C   0  0  0  0  0  0
   51.2579  -42.3048   16.3755 C   0  0  0  0  0  0
   51.8049  -41.4817   15.2023 C   0  0  0  0  0  0
   49.7593  -45.2724   17.9421 C   0  0  0  0  0  0
   49.5034  -46.2965   16.9574 C   0  0  0  0  0  0
   48.9247  -47.5317   17.3490 C   0  0  0  0  0  0
   48.5944  -47.7637   18.7097 C   0  0  0  0  0  0
   48.8418  -46.7655   19.6911 C   0  0  0  0  0  0
   49.4183  -45.5273   19.3123 C   0  0  0  0  0  0
   52.7828  -40.8249   19.4599 C   0  0  0  0  0  0
   51.6296  -40.6309   18.4568 C   0  0  0  0  0  0
   58.6067  -36.4643   22.3711 O   0  0  0  0  0  0
   59.8641  -38.2881   22.6118 O   0  0  0  0  0  0
   58.9222  -37.5142   22.9820 C   0  0  0  0  0  0
   56.2717  -36.8391   23.9435 H   0  0  0  0  0  0
   60.3580  -38.0894   21.8406 H   0  0  0  0  0  0
  1  2  1  0  0  0
  1 11  1  0  0  0
  1 42  1  0  0  0
  2  3  1  0  0  0
  2 41  1  0  0  0
  3  4  1  0  0  0
  4  5  2  0  0  0
  4  6  1  0  0  0
  5  7  1  0  0  0
  6  8  2  0  0  0
  7  9  2  0  0  0
  8  9  1  0  0  0
  9 10  1  0  0  0
 10 37  1  0  0  0
 11 12  2  0  0  0
 11 16  1  0  0  0
 12 13  1  0  0  0
 12 23  1  0  0  0
 13 14  2  0  0  0
 14 15  1  0  0  0
 15 16  2  0  0  0
 17 18  2  0  0  0
 17 22  1  0  0  0
 17 23  1  0  0  0
 18 19  1  0  0  0
 19 20  2  0  0  0
 20 21  1  0  0  0
 21 22  2  0  0  0
 23 24  2  0  0  0
 25 26  1  0  0  0
 25 29  1  0  0  0
 26 27  2  0  0  0
 26 31  1  0  0  0
 27 28  1  0  0  0
 28 29  2  0  0  0
 28 38  1  0  0  0
 29 30  1  0  0  0
 31 32  2  0  0  0
 31 36  1  0  0  0
 32 33  1  0  0  0
 33 34  2  0  0  0
 34 35  1  0  0  0
 35 36  2  0  0  0
 37 38  1  0  0  0
 39 41  2  0  0  0
 40 41  1  0  0  0
 40 43  1  0  0  0
M  END
>  <CHROM.0>
-94.61220784,114.50394899,-156.06269783

>  <CHROM.1>
136.10206823,171.83002600,55.41209470,-7.40787699,-147.89732717,-56.96577833
-174.58681089,168.06423126,3.81976232,0.41536506,63.98445489,-178.48232491
175.63975201,53.86744737,-38.89826235,21.80783360,-1.11085238,0.27212969
-2.63584176

>  <FORMUL>
      570    C34 H30 N2 O5

>  <HET>
 570  D 200      41

>  <HETNAM>
     570 2-(2-BENZOYL-PHENYLAMINO)-3-{4-[2-(5-METHYL-2-PHENYL-OX
   2 570 AZOL-4-YL)-ETHOXY]-PHENYL}-PROPIONIC ACID

>  <HETSYN>
     570 GI262570

>  <Name>
570.pdb

>  <RI>
1.6766e+07

>  <Rbt.Current_Directory>
/home/malgorzata/Desktop/rDOCK_IFD/Wyniki/14_ppar-gamma/IFD

>  <Rbt.Executable>
rbdock ($Id: //depot/dev/client3/rdock/2013.1/src/exe/rbdock.cxx#4 $)

>  <Rbt.Library>
libRbt.so (2013.1, Build901 2013/11/27)

>  <Rbt.Parameter_File>
/home/malgorzata/Desktop/rDock_2013.1_src/data/scripts/dock.prm

>  <Rbt.Receptor>
cavity.prm

>  <SCORE>
-1.81854

>  <SCORE.INTER>
-1.05411

>  <SCORE.INTER.CONST>
1

>  <SCORE.INTER.POLAR>
0

>  <SCORE.INTER.REPUL>
0

>  <SCORE.INTER.ROT>
12

>  <SCORE.INTER.VDW>
-18.4541

>  <SCORE.INTER.norm>
-0.0257101

>  <SCORE.INTRA>
-0.7327

>  <SCORE.INTRA.DIHEDRAL>
-4.62509

>  <SCORE.INTRA.DIHEDRAL.0>
12.9748

>  <SCORE.INTRA.POLAR>
0.00470047

>  <SCORE.INTRA.POLAR.0>
-0.058673

>  <SCORE.INTRA.REPUL>
0

>  <SCORE.INTRA.REPUL.0>
0

>  <SCORE.INTRA.VDW>
1.56386

>  <SCORE.INTRA.VDW.0>
-4.98062

>  <SCORE.INTRA.norm>
-0.0178707

>  <SCORE.RESTR>
0

>  <SCORE.RESTR.CAVITY>
0

>  <SCORE.RESTR.norm>
0

>  <SCORE.SYSTEM>
-0.0317225

>  <SCORE.SYSTEM.CONST>
0

>  <SCORE.SYSTEM.DIHEDRAL>
1.2004

>  <SCORE.SYSTEM.VDW>
-0.631924

>  <SCORE.SYSTEM.norm>
-0.000773719

>  <SCORE.heavy>
41

>  <SCORE.norm>
-0.0443546

$$$$
570.pdb
  rDOCK(R)          3D
libRbt.so/2013.1/901 2013/11/27
 43 47  0  0  0  0  0  0  0  0999 V2000
   50.4535  -40.1005   21.5316 N   0  0  0  0  0  0
   50.3789  -40.9029   22.8088 C   0  0  0  0  0  0
   51.1051  -40.2152   24.0070 C   0  0  0  0  0  0
   52.5875  -39.9135   23.7602 C   0  0  0  0  0  0
   53.5258  -40.9951   23.8310 C   0  0  0  0  0  0
   53.0428  -38.5860   23.4656 C   0  0  0  0  0  0
   54.8973  -40.7658   23.6111 C   0  0  0  0  0  0
   54.4176  -38.3450   23.2434 C   0  0  0  0  0  0
   55.3798  -39.4513   23.3147 C   0  0  0  0  0  0
   56.7899  -39.3566   23.1117 O   0  0  0  0  0  0
   51.5062  -39.8928   20.5405 C   0  0  0  0  0  0
   51.2646  -39.0885   19.3373 C   0  0  0  0  0  0
   52.3653  -38.9368   18.4150 C   0  0  0  0  0  0
   53.6231  -39.5380   18.6556 C   0  0  0  0  0  0
   53.8360  -40.3070   19.8141 C   0  0  0  0  0  0
   52.8057  -40.4836   20.7399 C   0  0  0  0  0  0
   49.5776  -37.4684   17.7596 C   0  0  0  0  0  0
   50.5284  -37.3283   16.6791 C   0  0  0  0  0  0
   50.2338  -36.5003   15.5576 C   0  0  0  0  0  0
   48.9902  -35.8046   15.5014 C   0  0  0  0  0  0
   48.0483  -35.9359   16.5615 C   0  0  0  0  0  0
   48.3387  -36.7585   17.6779 C   0  0  0  0  0  0
   49.9103  -38.3595   18.9464 C   0  0  0  0  0  0
   48.9607  -38.4687   19.7492 O   0  0  0  0  0  0
   59.5998  -36.0833   21.0198 O   0  0  0  0  0  0
   59.1073  -37.1024   20.2123 C   0  0  0  0  0  0
   58.8600  -38.1832   21.0911 N   0  0  0  0  0  0
   59.2177  -37.7706   22.3567 C   0  0  0  0  0  0
   59.7078  -36.4164   22.3530 C   0  0  0  0  0  0
   60.2164  -35.5595   23.5193 C   0  0  0  0  0  0
   58.8955  -37.0967   18.8339 C   0  0  0  0  0  0
   58.1676  -38.1441   18.1579 C   0  0  0  0  0  0
   57.9854  -38.0907   16.7515 C   0  0  0  0  0  0
   58.5194  -37.0083   16.0049 C   0  0  0  0  0  0
   59.2372  -35.9687   16.6566 C   0  0  0  0  0  0
   59.4269  -36.0113   18.0605 C   0  0  0  0  0  0
   57.6434  -38.8051   24.1434 C   0  0  0  0  0  0
   59.0788  -38.7294   23.5887 C   0  0  0  0  0  0
   48.6543  -42.4472   23.2496 O   0  0  0  0  0  0
   48.1149  -40.2859   23.3072 O   0  0  0  0  0  0
   48.9571  -41.2319   23.1687 C   0  0  0  0  0  0
   49.6209  -39.6178   21.3242 H   0  0  0  0  0  0
   47.2247  -40.4794   23.5264 H   0  0  0  0  0  0
  1  2  1  0  0  0
  1 11  1  0  0  0
  1 42  1  0  0  0
  2  3  1  0  0  0
  2 41  1  0  0  0
  3  4  1  0  0  0
  4  5  2  0  0  0
  4  6  1  0  0  0
  5  7  1  0  0  0
  6  8  2  0  0  0
  7  9  2  0  0  0
  8  9  1  0  0  0
  9 10  1  0  0  0
 10 37  1  0  0  0
 11 12  2  0  0  0
 11 16  1  0  0  0
 12 13  1  0  0  0
 12 23  1  0  0  0
 13 14  2  0  0  0
 14 15  1  0  0  0
 15 16  2  0  0  0
 17 18  2  0  0  0
 17 22  1  0  0  0
 17 23  1  0  0  0
 18 19  1  0  0  0
 19 20  2  0  0  0
 20 21  1  0  0  0
 21 22  2  0  0  0
 23 24  2  0  0  0
 25 26  1  0  0  0
 25 29  1  0  0  0
 26 27  2  0  0  0
 26 31  1  0  0  0
 27 28  1  0  0  0
 28 29  2  0  0  0
 28 38  1  0  0  0
 29 30  1  0  0  0
 31 32  2  0  0  0
 31 36  1  0  0  0
 32 33  1  0  0  0
 33 34  2  0  0  0
 34 35  1  0  0  0
 35 36  2  0  0  0
 37 38  1  0  0  0
 39 41  2  0  0  0
 40 41  1  0  0  0
 40 43  1  0  0  0
M  END
>  <CHROM.0>
-80.01510826,118.16303998,154.08235223

>  <CHROM.1>
77.44569342,177.05887591,-57.46643302,120.00794870,-76.50307090,-103.82739298
-175.40843421,177.44060441,8.56354391,-169.17872726,-80.49976911,62.87179755
179.63745311,53.96756810,-38.52189228,20.58813948,-3.11339023,-0.19505926
-1.12707824

>  <FORMUL>
      570    C34 H30 N2 O5

>  <HET>
 570  D 200      41

>  <HETNAM>
     570 2-(2-BENZOYL-PHENYLAMINO)-3-{4-[2-(5-METHYL-2-PHENYL-OX
   2 570 AZOL-4-YL)-ETHOXY]-PHENYL}-PROPIONIC ACID

>  <HETSYN>
     570 GI262570

>  <Name>
570.pdb

>  <RI>
1.6766e+07

>  <Rbt.Current_Directory>
/home/malgorzata/Desktop/rDOCK_IFD/Wyniki/14_ppar-gamma/IFD

>  <Rbt.Executable>
rbdock ($Id: //depot/dev/client3/rdock/2013.1/src/exe/rbdock.cxx#4 $)

>  <Rbt.Library>
libRbt.so (2013.1, Build901 2013/11/27)

>  <Rbt.Parameter_File>
/home/malgorzata/Desktop/rDock_2013.1_src/data/scripts/dock.prm

>  <Rbt.Receptor>
cavity.prm

>  <SCORE>
-0.308919

>  <SCORE.INTER>
2.0547

>  <SCORE.INTER.CONST>
1

>  <SCORE.INTER.POLAR>
0

>  <SCORE.INTER.REPUL>
0

>  <SCORE.INTER.ROT>
12

>  <SCORE.INTER.VDW>
-15.3453

>  <SCORE.INTER.norm>
0.0501147

>  <SCORE.INTRA>
-2.37298

>  <SCORE.INTRA.DIHEDRAL>
-2.79749

>  <SCORE.INTRA.DIHEDRAL.0>
12.9748

>  <SCORE.INTRA.POLAR>
-0.0472606

>  <SCORE.INTRA.POLAR.0>
-0.058673

>  <SCORE.INTRA.REPUL>
0.00723916

>  <SCORE.INTRA.REPUL.0>
0

>  <SCORE.INTRA.VDW>
-0.849748

>  <SCORE.INTRA.VDW.0>
-4.98062

>  <SCORE.INTRA.norm>
-0.0578777

>  <SCORE.RESTR>
0

>  <SCORE.RESTR.CAVITY>
0

>  <SCORE.RESTR.norm>
0

>  <SCORE.SYSTEM>
0.0093622

>  <SCORE.SYSTEM.CONST>
0

>  <SCORE.SYSTEM.DIHEDRAL>
1.19862

>  <SCORE.SYSTEM.VDW>
-0.589949

>  <SCORE.SYSTEM.norm>
0.000228346

>  <SCORE.heavy>
41

>  <SCORE.norm>
-0.00753462

$$$$
570.pdb
  rDOCK(R)          3D
libRbt.so/2013.1/901 2013/11/27
 43 47  0  0  0  0  0  0  0  0999 V2000
   52.2167  -38.0842   23.2596 N   0  0  0  0  0  0
   50.7726  -38.5181   23.1754 C   0  0  0  0  0  0
   50.5925  -39.9209   22.5153 C   0  0  0  0  0  0
   51.1982  -40.0430   21.1125 C   0  0  0  0  0  0
   52.3743  -40.8451   20.9436 C   0  0  0  0  0  0
   50.6157  -39.3761   19.9845 C   0  0  0  0  0  0
   52.9654  -40.9867   19.6738 C   0  0  0  0  0  0
   51.2014  -39.5116   18.7054 C   0  0  0  0  0  0
   52.4054  -40.3330   18.5303 C   0  0  0  0  0  0
   53.0998  -40.5605   17.3037 O   0  0  0  0  0  0
   52.8690  -36.7775   23.2847 C   0  0  0  0  0  0
   54.3295  -36.6623   23.3654 C   0  0  0  0  0  0
   54.8846  -35.3293   23.3828 C   0  0  0  0  0  0
   54.0597  -34.1813   23.3274 C   0  0  0  0  0  0
   52.6611  -34.3111   23.2516 C   0  0  0  0  0  0
   52.0727  -35.5773   23.2294 C   0  0  0  0  0  0
   56.8864  -37.8545   23.3449 C   0  0  0  0  0  0
   57.5923  -36.5996   23.2102 C   0  0  0  0  0  0
   59.0146  -36.5733   23.1311 C   0  0  0  0  0  0
   59.7471  -37.7956   23.1856 C   0  0  0  0  0  0
   59.0602  -39.0363   23.3170 C   0  0  0  0  0  0
   57.6460  -39.0654   23.3958 C   0  0  0  0  0  0
   55.3679  -37.8605   23.4307 C   0  0  0  0  0  0
   54.8934  -39.0124   23.5090 O   0  0  0  0  0  0
   49.2495  -42.5075   18.6849 O   0  0  0  0  0  0
   48.5712  -41.4241   18.1379 C   0  0  0  0  0  0
   49.3509  -41.0222   17.0279 N   0  0  0  0  0  0
   50.4423  -41.8622   16.9698 C   0  0  0  0  0  0
   50.4172  -42.8363   18.0303 C   0  0  0  0  0  0
   51.4189  -43.9521   18.3542 C   0  0  0  0  0  0
   47.3829  -40.8334   18.5666 C   0  0  0  0  0  0
   46.8109  -39.6807   17.9123 C   0  0  0  0  0  0
   45.6010  -39.1165   18.3936 C   0  0  0  0  0  0
   44.9501  -39.6827   19.5206 C   0  0  0  0  0  0
   45.5003  -40.8186   20.1745 C   0  0  0  0  0  0
   46.7087  -41.3905   19.7041 C   0  0  0  0  0  0
   52.4073  -40.4445   16.0372 C   0  0  0  0  0  0
   51.5301  -41.6978   15.8536 C   0  0  0  0  0  0
   50.8557  -38.4617   25.5299 O   0  0  0  0  0  0
   48.8359  -38.5271   24.5909 O   0  0  0  0  0  0
   50.1071  -38.4767   24.5226 C   0  0  0  0  0  0
   52.8489  -38.8374   23.3074 H   0  0  0  0  0  0
   48.4116  -38.5371   25.4263 H   0  0  0  0  0  0
  1  2  1  0  0  0
  1 11  1  0  0  0
  1 42  1  0  0  0
  2  3  1  0  0  0
  2 41  1  0  0  0
  3  4  1  0  0  0
  4  5  2  0  0  0
  4  6  1  0  0  0
  5  7  1  0  0  0
  6  8  2  0  0  0
  7  9  2  0  0  0
  8  9  1  0  0  0
  9 10  1  0  0  0
 10 37  1  0  0  0
 11 12  2  0  0  0
 11 16  1  0  0  0
 12 13  1  0  0  0
 12 23  1  0  0  0
 13 14  2  0  0  0
 14 15  1  0  0  0
 15 16  2  0  0  0
 17 18  2  0  0  0
 17 22  1  0  0  0
 17 23  1  0  0  0
 18 19  1  0  0  0
 19 20  2  0  0  0
 20 21  1  0  0  0
 21 22  2  0  0  0
 23 24  2  0  0  0
 25 26  1  0  0  0
 25 29  1  0  0  0
 26 27  2  0  0  0
 26 31  1  0  0  0
 27 28  1  0  0  0
 28 29  2  0  0  0
 28 38  1  0  0  0
 29 30  1  0  0  0
 31 32  2  0  0  0
 31 36  1  0  0  0
 32 33  1  0  0  0
 33 34  2  0  0  0
 34 35  1  0  0  0
 35 36  2  0  0  0
 37 38  1  0  0  0
 39 41  2  0  0  0
 40 41  1  0  0  0
 40 43  1  0  0  0
M  END
>  <CHROM.0>
-105.51952655,137.19690888,145.13646026

>  <CHROM.1>
152.45252659,-179.62774882,-56.20544771,-18.67949681,109.03655896,155.00395572
-75.69798765,171.55667047,1.55470444,178.32682680,71.17326388,61.04413945
177.52163663,51.89331186,-39.24327931,20.97824603,0.68659906,0.02093096,0.94223308

>  <FORMUL>
      570    C34 H30 N2 O5

>  <HET>
 570  D 200      41

>  <HETNAM>
     570 2-(2-BENZOYL-PHENYLAMINO)-3-{4-[2-(5-METHYL-2-PHENYL-OX
   2 570 AZOL-4-YL)-ETHOXY]-PHENYL}-PROPIONIC ACID

>  <HETSYN>
     570 GI262570

>  <Name>
570.pdb

>  <RI>
1.6766e+07

>  <Rbt.Current_Directory>
/home/malgorzata/Desktop/rDOCK_IFD/Wyniki/14_ppar-gamma/IFD

>  <Rbt.Executable>
rbdock ($Id: //depot/dev/client3/rdock/2013.1/src/exe/rbdock.cxx#4 $)

>  <Rbt.Library>
libRbt.so (2013.1, Build901 2013/11/27)

>  <Rbt.Parameter_File>
/home/malgorzata/Desktop/rDock_2013.1_src/data/scripts/dock.prm

>  <Rbt.Receptor>
cavity.prm

>  <SCORE>
-0.0766804

>  <SCORE.INTER>
4.82098

>  <SCORE.INTER.CONST>
1

>  <SCORE.INTER.POLAR>
-0.278422

>  <SCORE.INTER.REPUL>
0

>  <SCORE.INTER.ROT>
12

>  <SCORE.INTER.VDW>
-11.6324

>  <SCORE.INTER.norm>
0.117585

>  <SCORE.INTRA>
-4.8695

>  <SCORE.INTRA.DIHEDRAL>
-6.34865

>  <SCORE.INTRA.DIHEDRAL.0>
12.9748

>  <SCORE.INTRA.POLAR>
-0.0391814

>  <SCORE.INTRA.POLAR.0>
-0.058673

>  <SCORE.INTRA.REPUL>
0

>  <SCORE.INTRA.REPUL.0>
0

>  <SCORE.INTRA.VDW>
-1.56196

>  <SCORE.INTRA.VDW.0>
-4.98062

>  <SCORE.INTRA.norm>
-0.118768

>  <SCORE.RESTR>
0.0207523

>  <SCORE.RESTR.CAVITY>
0.0207523

>  <SCORE.RESTR.norm>
0.000506154

>  <SCORE.SYSTEM>
-0.0489045

>  <SCORE.SYSTEM.CONST>
0

>  <SCORE.SYSTEM.DIHEDRAL>
1.19884

>  <SCORE.SYSTEM.VDW>
-0.648324

>  <SCORE.SYSTEM.norm>
-0.00119279

>  <SCORE.heavy>
41

>  <SCORE.norm>
-0.00187025

$$$$
570.pdb
  rDOCK(R)          3D
libRbt.so/2013.1/901 2013/11/27
 43 47  0  0  0  0  0  0  0  0999 V2000
   52.7206  -39.2840   20.7664 N   0  0  0  0  0  0
   52.0608  -40.1948   19.7585 C   0  0  0  0  0  0
   50.9551  -39.4808   18.9198 C   0  0  0  0  0  0
   49.9865  -38.6268   19.7456 C   0  0  0  0  0  0
   50.1310  -37.2010   19.7087 C   0  0  0  0  0  0
   48.9550  -39.2236   20.5432 C   0  0  0  0  0  0
   49.2641  -36.3762   20.4506 C   0  0  0  0  0  0
   48.0796  -38.4046   21.2919 C   0  0  0  0  0  0
   48.2255  -36.9444   21.2549 C   0  0  0  0  0  0
   47.4167  -35.9983   21.9542 O   0  0  0  0  0  0
   53.7211  -39.5023   21.8079 C   0  0  0  0  0  0
   54.1781  -38.3996   22.6611 C   0  0  0  0  0  0
   55.1683  -38.7110   23.6650 C   0  0  0  0  0  0
   55.6804  -40.0204   23.8211 C   0  0  0  0  0  0
   55.2313  -41.0651   22.9930 C   0  0  0  0  0  0
   54.2730  -40.8187   22.0075 C   0  0  0  0  0  0
   54.1448  -35.6723   23.3828 C   0  0  0  0  0  0
   55.4539  -35.6638   23.9971 C   0  0  0  0  0  0
   55.9002  -34.5300   24.7356 C   0  0  0  0  0  0
   55.0477  -33.3946   24.8691 C   0  0  0  0  0  0
   53.7564  -33.3947   24.2684 C   0  0  0  0  0  0
   53.3100  -34.5207   23.5336 C   0  0  0  0  0  0
   53.6885  -36.8915   22.5961 C   0  0  0  0  0  0
   52.7391  -36.6411   21.8255 O   0  0  0  0  0  0
   46.3676  -38.5941   18.3568 O   0  0  0  0  0  0
   47.2658  -37.6845   17.8099 C   0  0  0  0  0  0
   47.0633  -36.4852   18.5326 N   0  0  0  0  0  0
   46.0667  -36.7269   19.4537 C   0  0  0  0  0  0
   45.5846  -38.0813   19.3687 C   0  0  0  0  0  0
   44.4904  -38.7807   20.1853 C   0  0  0  0  0  0
   48.1775  -37.8767   16.7722 C   0  0  0  0  0  0
   48.2838  -39.1255   16.0559 C   0  0  0  0  0  0
   49.2331  -39.2679   15.0107 C   0  0  0  0  0  0
   50.0819  -38.1836   14.6670 C   0  0  0  0  0  0
   49.9880  -36.9472   15.3622 C   0  0  0  0  0  0
   49.0448  -36.7929   16.4088 C   0  0  0  0  0  0
   46.7221  -34.9526   21.2323 C   0  0  0  0  0  0
   45.5784  -35.6021   20.4298 C   0  0  0  0  0  0
   54.0378  -40.1336   18.4774 O   0  0  0  0  0  0
   52.8846  -42.0402   18.4659 O   0  0  0  0  0  0
   53.0744  -40.8427   18.8572 C   0  0  0  0  0  0
   52.4128  -38.3506   20.7097 H   0  0  0  0  0  0
   52.1130  -42.5024   18.7290 H   0  0  0  0  0  0
  1  2  1  0  0  0
  1 11  1  0  0  0
  1 42  1  0  0  0
  2  3  1  0  0  0
  2 41  1  0  0  0
  3  4  1  0  0  0
  4  5  2  0  0  0
  4  6  1  0  0  0
  5  7  1  0  0  0
  6  8  2  0  0  0
  7  9  2  0  0  0
  8  9  1  0  0  0
  9 10  1  0  0  0
 10 37  1  0  0  0
 11 12  2  0  0  0
 11 16  1  0  0  0
 12 13  1  0  0  0
 12 23  1  0  0  0
 13 14  2  0  0  0
 14 15  1  0  0  0
 15 16  2  0  0  0
 17 18  2  0  0  0
 17 22  1  0  0  0
 17 23  1  0  0  0
 18 19  1  0  0  0
 19 20  2  0  0  0
 20 21  1  0  0  0
 21 22  2  0  0  0
 23 24  2  0  0  0
 25 26  1  0  0  0
 25 29  1  0  0  0
 26 27  2  0  0  0
 26 31  1  0  0  0
 27 28  1  0  0  0
 28 29  2  0  0  0
 28 38  1  0  0  0
 29 30  1  0  0  0
 31 32  2  0  0  0
 31 36  1  0  0  0
 32 33  1  0  0  0
 33 34  2  0  0  0
 34 35  1  0  0  0
 35 36  2  0  0  0
 37 38  1  0  0  0
 39 41  2  0  0  0
 40 41  1  0  0  0
 40 43  1  0  0  0
M  END
>  <CHROM.0>
114.64157525,123.96071866,150.56151182

>  <CHROM.1>
175.58197557,-179.65994216,-46.03772005,-39.36293497,104.51243491,56.35466698
70.65670838,-176.67344839,22.15713571,2.01306249,-53.64025937,-56.60652841
0.97907303,50.79695043,-37.81157015,20.36876363,-0.47213441,0.39824793,-2.33421811

>  <FORMUL>
      570    C34 H30 N2 O5

>  <HET>
 570  D 200      41

>  <HETNAM>
     570 2-(2-BENZOYL-PHENYLAMINO)-3-{4-[2-(5-METHYL-2-PHENYL-OX
   2 570 AZOL-4-YL)-ETHOXY]-PHENYL}-PROPIONIC ACID

>  <HETSYN>
     570 GI262570

>  <Name>
570.pdb

>  <RI>
1.6766e+07

>  <Rbt.Current_Directory>
/home/malgorzata/Desktop/rDOCK_IFD/Wyniki/14_ppar-gamma/IFD

>  <Rbt.Executable>
rbdock ($Id: //depot/dev/client3/rdock/2013.1/src/exe/rbdock.cxx#4 $)

>  <Rbt.Library>
libRbt.so (2013.1, Build901 2013/11/27)

>  <Rbt.Parameter_File>
/home/malgorzata/Desktop/rDock_2013.1_src/data/scripts/dock.prm

>  <Rbt.Receptor>
cavity.prm

>  <SCORE>
1.02448

>  <SCORE.INTER>
4.85714

>  <SCORE.INTER.CONST>
1

>  <SCORE.INTER.POLAR>
-0.914183

>  <SCORE.INTER.REPUL>
0

>  <SCORE.INTER.ROT>
12

>  <SCORE.INTER.VDW>
-9.43463

>  <SCORE.INTER.norm>
0.118467

>  <SCORE.INTRA>
-3.8445

>  <SCORE.INTRA.DIHEDRAL>
-1.61885

>  <SCORE.INTRA.DIHEDRAL.0>
12.9748

>  <SCORE.INTRA.POLAR>
-0.0291333

>  <SCORE.INTRA.POLAR.0>
-0.058673

>  <SCORE.INTRA.REPUL>
0

>  <SCORE.INTRA.REPUL.0>
0

>  <SCORE.INTRA.VDW>
-2.93602

>  <SCORE.INTRA.VDW.0>
-4.98062

>  <SCORE.INTRA.norm>
-0.0937682

>  <SCORE.RESTR>
0

>  <SCORE.RESTR.CAVITY>
0

>  <SCORE.RESTR.norm>
0

>  <SCORE.SYSTEM>
0.0118291

>  <SCORE.SYSTEM.CONST>
0

>  <SCORE.SYSTEM.DIHEDRAL>
1.1992

>  <SCORE.SYSTEM.VDW>
-0.587771

>  <SCORE.SYSTEM.norm>
0.000288515

>  <SCORE.heavy>
41

>  <SCORE.norm>
0.0249872

$$$$
570.pdb
  rDOCK(R)          3D
libRbt.so/2013.1/901 2013/11/27
 43 47  0  0  0  0  0  0  0  0999 V2000
   57.9938  -35.7440   21.2091 N   0  0  0  0  0  0
   58.8618  -35.0736   20.1708 C   0  0  0  0  0  0
   59.3096  -36.0406   19.0305 C   0  0  0  0  0  0
   58.1739  -36.8714   18.4225 C   0  0  0  0  0  0
   57.3976  -37.7066   19.2914 C   0  0  0  0  0  0
   57.8820  -36.8274   17.0192 C   0  0  0  0  0  0
   56.3444  -38.4870   18.7779 C   0  0  0  0  0  0
   56.8269  -37.6071   16.4935 C   0  0  0  0  0  0
   56.0304  -38.4624   17.3817 C   0  0  0  0  0  0
   54.9397  -39.2976   16.9928 O   0  0  0  0  0  0
   58.2006  -36.8796   22.1041 C   0  0  0  0  0  0
   57.0763  -37.4938   22.8194 C   0  0  0  0  0  0
   57.3768  -38.6131   23.6808 C   0  0  0  0  0  0
   58.6969  -39.0983   23.8336 C   0  0  0  0  0  0
   59.7627  -38.4960   23.1407 C   0  0  0  0  0  0
   59.5268  -37.4117   22.2930 C   0  0  0  0  0  0
   54.3055  -37.7148   23.3030 C   0  0  0  0  0  0
   54.4201  -38.9565   24.0353 C   0  0  0  0  0  0
   53.2628  -39.5893   24.5740 C   0  0  0  0  0  0
   51.9812  -38.9918   24.3889 C   0  0  0  0  0  0
   51.8589  -37.7696   23.6682 C   0  0  0  0  0  0
   53.0079  -37.1382   23.1314 C   0  0  0  0  0  0
   55.5537  -37.0538   22.7385 C   0  0  0  0  0  0
   55.2975  -36.0358   22.0633 O   0  0  0  0  0  0
   51.1060  -42.4128   19.9154 O   0  0  0  0  0  0
   51.2349  -43.4209   18.9666 C   0  0  0  0  0  0
   51.9093  -42.8195   17.8779 N   0  0  0  0  0  0
   52.1393  -41.5034   18.2167 C   0  0  0  0  0  0
   51.6287  -41.1976   19.5281 C   0  0  0  0  0  0
   51.6560  -39.8730   20.3014 C   0  0  0  0  0  0
   50.8017  -44.7446   19.0372 C   0  0  0  0  0  0
   50.0810  -45.2640   20.1750 C   0  0  0  0  0  0
   49.6675  -46.6214   20.1965 C   0  0  0  0  0  0
   49.9624  -47.4730   19.1001 C   0  0  0  0  0  0
   50.6700  -46.9757   17.9720 C   0  0  0  0  0  0
   51.0894  -45.6223   17.9391 C   0  0  0  0  0  0
   53.8734  -39.5928   17.9271 C   0  0  0  0  0  0
   52.8698  -40.5304   17.2287 C   0  0  0  0  0  0
   58.7164  -32.7427   19.8565 O   0  0  0  0  0  0
   57.1059  -33.9874   18.9495 O   0  0  0  0  0  0
   58.1933  -33.8543   19.6000 C   0  0  0  0  0  0
   57.1053  -35.3301   21.3018 H   0  0  0  0  0  0
   56.6629  -33.2313   18.6178 H   0  0  0  0  0  0
  1  2  1  0  0  0
  1 11  1  0  0  0
  1 42  1  0  0  0
  2  3  1  0  0  0
  2 41  1  0  0  0
  3  4  1  0  0  0
  4  5  2  0  0  0
  4  6  1  0  0  0
  5  7  1  0  0  0
  6  8  2  0  0  0
  7  9  2  0  0  0
  8  9  1  0  0  0
  9 10  1  0  0  0
 10 37  1  0  0  0
 11 12  2  0  0  0
 11 16  1  0  0  0
 12 13  1  0  0  0
 12 23  1  0  0  0
 13 14  2  0  0  0
 14 15  1  0  0  0
 15 16  2  0  0  0
 17 18  2  0  0  0
 17 22  1  0  0  0
 17 23  1  0  0  0
 18 19  1  0  0  0
 19 20  2  0  0  0
 20 21  1  0  0  0
 21 22  2  0  0  0
 23 24  2  0  0  0
 25 26  1  0  0  0
 25 29  1  0  0  0
 26 27  2  0  0  0
 26 31  1  0  0  0
 27 28  1  0  0  0
 28 29  2  0  0  0
 28 38  1  0  0  0
 29 30  1  0  0  0
 31 32  2  0  0  0
 31 36  1  0  0  0
 32 33  1  0  0  0
 33 34  2  0  0  0
 34 35  1  0  0  0
 35 36  2  0  0  0
 37 38  1  0  0  0
 39 41  2  0  0  0
 40 41  1  0  0  0
 40 43  1  0  0  0
M  END
>  <CHROM.0>
-124.77633127,-80.04910159,101.02104030

>  <CHROM.1>
59.18819157,-166.95989488,48.44509898,113.14751048,-57.16548774,28.69107649
-178.92718130,171.95434989,-0.77919166,1.75862831,-139.36721555,149.66512856
177.62640347,54.81579085,-39.23705584,20.29055765,0.31182739,0.84114350,1.33342077

>  <FORMUL>
      570    C34 H30 N2 O5

>  <HET>
 570  D 200      41

>  <HETNAM>
     570 2-(2-BENZOYL-PHENYLAMINO)-3-{4-[2-(5-METHYL-2-PHENYL-OX
   2 570 AZOL-4-YL)-ETHOXY]-PHENYL}-PROPIONIC ACID

>  <HETSYN>
     570 GI262570

>  <Name>
570.pdb

>  <RI>
1.6766e+07

>  <Rbt.Current_Directory>
/home/malgorzata/Desktop/rDOCK_IFD/Wyniki/14_ppar-gamma/IFD

>  <Rbt.Executable>
rbdock ($Id: //depot/dev/client3/rdock/2013.1/src/exe/rbdock.cxx#4 $)

>  <Rbt.Library>
libRbt.so (2013.1, Build901 2013/11/27)

>  <Rbt.Parameter_File>
/home/malgorzata/Desktop/rDock_2013.1_src/data/scripts/dock.prm

>  <Rbt.Receptor>
cavity.prm

>  <SCORE>
-1.43589

>  <SCORE.INTER>
-1.9054

>  <SCORE.INTER.CONST>
1

>  <SCORE.INTER.POLAR>
-0.775713

>  <SCORE.INTER.REPUL>
0

>  <SCORE.INTER.ROT>
12

>  <SCORE.INTER.VDW>
-16.668

>  <SCORE.INTER.norm>
-0.0464732

>  <SCORE.INTRA>
0.559271

>  <SCORE.INTRA.DIHEDRAL>
-1.6913

>  <SCORE.INTRA.DIHEDRAL.0>
12.9748

>  <SCORE.INTRA.POLAR>
-0.0363304

>  <SCORE.INTRA.POLAR.0>
-0.058673

>  <SCORE.INTRA.REPUL>
0

>  <SCORE.INTRA.REPUL.0>
0

>  <SCORE.INTRA.VDW>
1.52845

>  <SCORE.INTRA.VDW.0>
-4.98062

>  <SCORE.INTRA.norm>
0.0136408

>  <SCORE.RESTR>
0

>  <SCORE.RESTR.CAVITY>
0

>  <SCORE.RESTR.norm>
0

>  <SCORE.SYSTEM>
-0.0897585

>  <SCORE.SYSTEM.CONST>
0

>  <SCORE.SYSTEM.DIHEDRAL>
1.20105

>  <SCORE.SYSTEM.VDW>
-0.690281

>  <SCORE.SYSTEM.norm>
-0.00218923

>  <SCORE.heavy>
41

>  <SCORE.norm>
-0.0350217

$$$$
570.pdb
  rDOCK(R)          3D
libRbt.so/2013.1/901 2013/11/27
 43 47  0  0  0  0  0  0  0  0999 V2000
   52.0810  -36.3415   22.4814 N   0  0  0  0  0  0
   51.1028  -37.2953   21.8377 C   0  0  0  0  0  0
   50.1955  -38.0321   22.8721 C   0  0  0  0  0  0
   49.2949  -39.1146   22.2665 C   0  0  0  0  0  0
   49.8638  -40.4015   21.9917 C   0  0  0  0  0  0
   47.9139  -38.8627   21.9741 C   0  0  0  0  0  0
   49.0750  -41.4267   21.4361 C   0  0  0  0  0  0
   47.1132  -39.8850   21.4159 C   0  0  0  0  0  0
   47.6937  -41.2036   21.1345 C   0  0  0  0  0  0
   47.0081  -42.3250   20.5770 O   0  0  0  0  0  0
   53.5273  -36.3764   22.6827 C   0  0  0  0  0  0
   54.2006  -35.3686   23.5096 C   0  0  0  0  0  0
   55.6328  -35.4848   23.6529 C   0  0  0  0  0  0
   56.3597  -36.5221   23.0230 C   0  0  0  0  0  0
   55.6973  -37.4789   22.2327 C   0  0  0  0  0  0
   54.3128  -37.4139   22.0630 C   0  0  0  0  0  0
   54.0351  -33.2700   25.3881 C   0  0  0  0  0  0
   53.1798  -32.2514   25.9556 C   0  0  0  0  0  0
   53.6524  -31.4104   27.0041 C   0  0  0  0  0  0
   54.9802  -31.5758   27.4973 C   0  0  0  0  0  0
   55.8298  -32.5756   26.9435 C   0  0  0  0  0  0
   55.3626  -33.4133   25.9009 C   0  0  0  0  0  0
   53.5105  -34.1595   24.2714 C   0  0  0  0  0  0
   52.3263  -33.9063   23.9686 O   0  0  0  0  0  0
   48.8925  -41.6195   16.6834 O   0  0  0  0  0  0
   49.4545  -40.9012   17.7328 C   0  0  0  0  0  0
   48.3856  -40.6555   18.6266 N   0  0  0  0  0  0
   47.2550  -41.2197   18.0759 C   0  0  0  0  0  0
   47.5397  -41.8501   16.8127 C   0  0  0  0  0  0
   46.5951  -42.5886   15.8559 C   0  0  0  0  0  0
   50.7771  -40.4910   17.8983 C   0  0  0  0  0  0
   51.2352  -39.8152   19.0889 C   0  0  0  0  0  0
   52.5921  -39.4153   19.2027 C   0  0  0  0  0  0
   53.5027  -39.6772   18.1461 C   0  0  0  0  0  0
   53.0668  -40.3430   16.9682 C   0  0  0  0  0  0
   51.7140  -40.7463   16.8420 C   0  0  0  0  0  0
   45.7158  -42.1543   19.9463 C   0  0  0  0  0  0
   45.8704  -41.1310   18.8050 C   0  0  0  0  0  0
   50.4248  -36.9672   19.6048 O   0  0  0  0  0  0
   49.4974  -35.6524   21.1464 O   0  0  0  0  0  0
   50.2671  -36.6053   20.7962 C   0  0  0  0  0  0
   51.6562  -35.5286   22.8391 H   0  0  0  0  0  0
   49.0210  -35.1723   20.4979 H   0  0  0  0  0  0
  1  2  1  0  0  0
  1 11  1  0  0  0
  1 42  1  0  0  0
  2  3  1  0  0  0
  2 41  1  0  0  0
  3  4  1  0  0  0
  4  5  2  0  0  0
  4  6  1  0  0  0
  5  7  1  0  0  0
  6  8  2  0  0  0
  7  9  2  0  0  0
  8  9  1  0  0  0
  9 10  1  0  0  0
 10 37  1  0  0  0
 11 12  2  0  0  0
 11 16  1  0  0  0
 12 13  1  0  0  0
 12 23  1  0  0  0
 13 14  2  0  0  0
 14 15  1  0  0  0
 15 16  2  0  0  0
 17 18  2  0  0  0
 17 22  1  0  0  0
 17 23  1  0  0  0
 18 19  1  0  0  0
 19 20  2  0  0  0
 20 21  1  0  0  0
 21 22  2  0  0  0
 23 24  2  0  0  0
 25 26  1  0  0  0
 25 29  1  0  0  0
 26 27  2  0  0  0
 26 31  1  0  0  0
 27 28  1  0  0  0
 28 29  2  0  0  0
 28 38  1  0  0  0
 29 30  1  0  0  0
 31 32  2  0  0  0
 31 36  1  0  0  0
 32 33  1  0  0  0
 33 34  2  0  0  0
 34 35  1  0  0  0
 35 36  2  0  0  0
 37 38  1  0  0  0
 39 41  2  0  0  0
 40 41  1  0  0  0
 40 43  1  0  0  0
M  END
>  <CHROM.0>
155.75160934,-154.00689724,-63.73466484

>  <CHROM.1>
107.75708121,-171.89490829,-173.84971051,114.12970301,80.59635417,-165.68993557
57.68702565,163.94009904,-177.72606081,-176.13496030,-79.33005412,34.91544402
175.36892575,51.06343459,-38.01856924,21.28073092,0.99955594,0.26465444,0.88926942

>  <FORMUL>
      570    C34 H30 N2 O5

>  <HET>
 570  D 200      41

>  <HETNAM>
     570 2-(2-BENZOYL-PHENYLAMINO)-3-{4-[2-(5-METHYL-2-PHENYL-OX
   2 570 AZOL-4-YL)-ETHOXY]-PHENYL}-PROPIONIC ACID

>  <HETSYN>
     570 GI262570

>  <Name>
570.pdb

>  <RI>
1.6766e+07

>  <Rbt.Current_Directory>
/home/malgorzata/Desktop/rDOCK_IFD/Wyniki/14_ppar-gamma/IFD

>  <Rbt.Executable>
rbdock ($Id: //depot/dev/client3/rdock/2013.1/src/exe/rbdock.cxx#4 $)

>  <Rbt.Library>
libRbt.so (2013.1, Build901 2013/11/27)

>  <Rbt.Parameter_File>
/home/malgorzata/Desktop/rDock_2013.1_src/data/scripts/dock.prm

>  <Rbt.Receptor>
cavity.prm

>  <SCORE>
4.75925

>  <SCORE.INTER>
7.87021

>  <SCORE.INTER.CONST>
1

>  <SCORE.INTER.POLAR>
0

>  <SCORE.INTER.REPUL>
0

>  <SCORE.INTER.ROT>
12

>  <SCORE.INTER.VDW>
-9.52979

>  <SCORE.INTER.norm>
0.191956

>  <SCORE.INTRA>
-3.31368

>  <SCORE.INTRA.DIHEDRAL>
-4.65949

>  <SCORE.INTRA.DIHEDRAL.0>
12.9748

>  <SCORE.INTRA.POLAR>
-0.010902

>  <SCORE.INTRA.POLAR.0>
-0.058673

>  <SCORE.INTRA.REPUL>
0.00307661

>  <SCORE.INTRA.REPUL.0>
0

>  <SCORE.INTRA.VDW>
-0.962245

>  <SCORE.INTRA.VDW.0>
-4.98062

>  <SCORE.INTRA.norm>
-0.0808213

>  <SCORE.RESTR>
0

>  <SCORE.RESTR.CAVITY>
0

>  <SCORE.RESTR.norm>
0

>  <SCORE.SYSTEM>
0.202709

>  <SCORE.SYSTEM.CONST>
0

>  <SCORE.SYSTEM.DIHEDRAL>
1.19921

>  <SCORE.SYSTEM.VDW>
-0.396898

>  <SCORE.SYSTEM.norm>
0.00494412

>  <SCORE.heavy>
41

>  <SCORE.norm>
0.116079

$$$$
570.pdb
  rDOCK(R)          3D
libRbt.so/2013.1/901 2013/11/27
 43 47  0  0  0  0  0  0  0  0999 V2000
   49.0241  -32.3820   22.2092 N   0  0  0  0  0  0
   48.0062  -32.5043   21.1002 C   0  0  0  0  0  0
   48.5396  -33.2940   19.8642 C   0  0  0  0  0  0
   49.4778  -34.4553   20.2115 C   0  0  0  0  0  0
   50.8520  -34.3661   19.8129 C   0  0  0  0  0  0
   49.0085  -35.6122   20.9170 C   0  0  0  0  0  0
   51.7507  -35.4081   20.1104 C   0  0  0  0  0  0
   49.9025  -36.6640   21.2205 C   0  0  0  0  0  0
   51.3101  -36.5742   20.8138 C   0  0  0  0  0  0
   52.3210  -37.5536   21.0531 O   0  0  0  0  0  0
   49.1976  -33.0661   23.4880 C   0  0  0  0  0  0
   50.4187  -32.8880   24.2818 C   0  0  0  0  0  0
   50.4999  -33.6030   25.5338 C   0  0  0  0  0  0
   49.4514  -34.4421   25.9784 C   0  0  0  0  0  0
   48.2884  -34.6017   25.2033 C   0  0  0  0  0  0
   48.1576  -33.9313   23.9854 C   0  0  0  0  0  0
   53.0003  -31.7982   24.6092 C   0  0  0  0  0  0
   53.9623  -30.8518   24.0893 C   0  0  0  0  0  0
   55.2177  -30.6654   24.7366 C   0  0  0  0  0  0
   55.5269  -31.4189   25.9072 C   0  0  0  0  0  0
   54.5861  -32.3539   26.4256 C   0  0  0  0  0  0
   53.3370  -32.5414   25.7839 C   0  0  0  0  0  0
   51.6645  -31.9802   23.9049 C   0  0  0  0  0  0
   51.5409  -31.2418   22.9062 O   0  0  0  0  0  0
   54.6830  -39.4755   17.4426 O   0  0  0  0  0  0
   53.4460  -39.9831   17.8239 C   0  0  0  0  0  0
   53.2949  -39.6086   19.1798 N   0  0  0  0  0  0
   54.4306  -38.9159   19.5411 C   0  0  0  0  0  0
   55.3585  -38.8123   18.4446 C   0  0  0  0  0  0
   56.7369  -38.1411   18.3928 C   0  0  0  0  0  0
   52.5310  -40.7110   17.0638 C   0  0  0  0  0  0
   52.6195  -40.8047   15.6259 C   0  0  0  0  0  0
   51.6579  -41.5557   14.9011 C   0  0  0  0  0  0
   50.6055  -42.2159   15.5872 C   0  0  0  0  0  0
   50.5059  -42.1341   17.0029 C   0  0  0  0  0  0
   51.4593  -41.3862   17.7379 C   0  0  0  0  0  0
   53.6905  -37.1494   21.2940 C   0  0  0  0  0  0
   54.6055  -38.3518   20.9928 C   0  0  0  0  0  0
   46.5429  -34.3286   21.3900 O   0  0  0  0  0  0
   45.8496  -32.3477   22.1391 O   0  0  0  0  0  0
   46.7208  -33.1038   21.5980 C   0  0  0  0  0  0
   49.7128  -31.7006   22.0340 H   0  0  0  0  0  0
   45.0478  -32.7115   22.4598 H   0  0  0  0  0  0
  1  2  1  0  0  0
  1 11  1  0  0  0
  1 42  1  0  0  0
  2  3  1  0  0  0
  2 41  1  0  0  0
  3  4  1  0  0  0
  4  5  2  0  0  0
  4  6  1  0  0  0
  5  7  1  0  0  0
  6  8  2  0  0  0
  7  9  2  0  0  0
  8  9  1  0  0  0
  9 10  1  0  0  0
 10 37  1  0  0  0
 11 12  2  0  0  0
 11 16  1  0  0  0
 12 13  1  0  0  0
 12 23  1  0  0  0
 13 14  2  0  0  0
 14 15  1  0  0  0
 15 16  2  0  0  0
 17 18  2  0  0  0
 17 22  1  0  0  0
 17 23  1  0  0  0
 18 19  1  0  0  0
 19 20  2  0  0  0
 20 21  1  0  0  0
 21 22  2  0  0  0
 23 24  2  0  0  0
 25 26  1  0  0  0
 25 29  1  0  0  0
 26 27  2  0  0  0
 26 31  1  0  0  0
 27 28  1  0  0  0
 28 29  2  0  0  0
 28 38  1  0  0  0
 29 30  1  0  0  0
 31 32  2  0  0  0
 31 36  1  0  0  0
 32 33  1  0  0  0
 33 34  2  0  0  0
 34 35  1  0  0  0
 35 36  2  0  0  0
 37 38  1  0  0  0
 39 41  2  0  0  0
 40 41  1  0  0  0
 40 43  1  0  0  0
M  END
>  <CHROM.0>
-99.30318383,-70.30880157,-131.61349817

>  <CHROM.1>
-102.68476043,170.01693753,35.78769674,-99.01336193,-113.51332521,33.58681152
-159.07106266,-175.66007029,-177.18780615,-14.03501186,-71.48696477,56.37379534
-179.46706590,51.42850309,-35.67033167,21.21209723,1.76099642,-0.16259882
0.73457346

>  <FORMUL>
      570    C34 H30 N2 O5

>  <HET>
 570  D 200      41

>  <HETNAM>
     570 2-(2-BENZOYL-PHENYLAMINO)-3-{4-[2-(5-METHYL-2-PHENYL-OX
   2 570 AZOL-4-YL)-ETHOXY]-PHENYL}-PROPIONIC ACID

>  <HETSYN>
     570 GI262570

>  <Name>
570.pdb

>  <RI>
1.6766e+07

>  <Rbt.Current_Directory>
/home/malgorzata/Desktop/rDOCK_IFD/Wyniki/14_ppar-gamma/IFD

>  <Rbt.Executable>
rbdock ($Id: //depot/dev/client3/rdock/2013.1/src/exe/rbdock.cxx#4 $)

>  <Rbt.Library>
libRbt.so (2013.1, Build901 2013/11/27)

>  <Rbt.Parameter_File>
/home/malgorzata/Desktop/rDock_2013.1_src/data/scripts/dock.prm

>  <Rbt.Receptor>
cavity.prm

>  <SCORE>
6.64829

>  <SCORE.INTER>
5.96966

>  <SCORE.INTER.CONST>
1

>  <SCORE.INTER.POLAR>
-0.317653

>  <SCORE.INTER.REPUL>
0

>  <SCORE.INTER.ROT>
12

>  <SCORE.INTER.VDW>
-10.3503

>  <SCORE.INTER.norm>
0.145601

>  <SCORE.INTRA>
0.754517

>  <SCORE.INTRA.DIHEDRAL>
-1.39792

>  <SCORE.INTRA.DIHEDRAL.0>
12.9748

>  <SCORE.INTRA.POLAR>
-0.035944

>  <SCORE.INTRA.POLAR.0>
-0.058673

>  <SCORE.INTRA.REPUL>
0.0020387

>  <SCORE.INTRA.REPUL.0>
0

>  <SCORE.INTRA.VDW>
1.56549

>  <SCORE.INTRA.VDW.0>
-4.98062

>  <SCORE.INTRA.norm>
0.0184028

>  <SCORE.RESTR>
0.00115713

>  <SCORE.RESTR.CAVITY>
0.00115713

>  <SCORE.RESTR.norm>
2.82227e-05

>  <SCORE.SYSTEM>
-0.0770415

>  <SCORE.SYSTEM.CONST>
0

>  <SCORE.SYSTEM.DIHEDRAL>
1.20019

>  <SCORE.SYSTEM.VDW>
-0.677137

>  <SCORE.SYSTEM.norm>
-0.00187906

>  <SCORE.heavy>
41

>  <SCORE.norm>
0.162154

$$$$
