570.pdb
  rDOCK(R)          3D
libRbt.so/2013.1/901 2013/11/27
 43 47  0  0  0  0  0  0  0  0999 V2000
   51.0217  -33.8185   21.6216 N   0  0  0  0  0  0
   49.5796  -33.6474   21.2073 C   0  0  0  0  0  0
   48.9789  -34.9239   20.5398 C   0  0  0  0  0  0
   49.0771  -34.9445   19.0103 C   0  0  0  0  0  0
   49.6472  -36.0978   18.3778 C   0  0  0  0  0  0
   48.6158  -33.8439   18.2152 C   0  0  0  0  0  0
   49.7576  -36.1616   16.9757 C   0  0  0  0  0  0
   48.7222  -33.8977   16.8068 C   0  0  0  0  0  0
   49.3050  -35.0781   16.1573 C   0  0  0  0  0  0
   49.4728  -35.2708   14.7526 O   0  0  0  0  0  0
   51.7876  -34.9514   22.1349 C   0  0  0  0  0  0
   53.2546  -34.9285   22.1495 C   0  0  0  0  0  0
   53.9258  -36.0930   22.6773 C   0  0  0  0  0  0
   53.2044  -37.2110   23.1580 C   0  0  0  0  0  0
   51.7979  -37.2157   23.1349 C   0  0  0  0  0  0
   51.0993  -36.1139   22.6369 C   0  0  0  0  0  0
   54.9740  -33.5930   20.3550 C   0  0  0  0  0  0
   56.3096  -34.1397   20.2623 C   0  0  0  0  0  0
   57.0637  -34.0097   19.0605 C   0  0  0  0  0  0
   56.4953  -33.3348   17.9402 C   0  0  0  0  0  0
   55.1811  -32.7923   18.0229 C   0  0  0  0  0  0
   54.4290  -32.9200   19.2167 C   0  0  0  0  0  0
   54.1845  -33.7451   21.6461 C   0  0  0  0  0  0
   54.3630  -32.7952   22.4359 O   0  0  0  0  0  0
   46.4857  -38.6652   14.8131 O   0  0  0  0  0  0
   46.9596  -38.3335   16.0775 C   0  0  0  0  0  0
   47.2292  -36.9458   16.0187 N   0  0  0  0  0  0
   46.9184  -36.5231   14.7440 C   0  0  0  0  0  0
   46.4380  -37.6089   13.9289 C   0  0  0  0  0  0
   45.9868  -37.6029   12.4627 C   0  0  0  0  0  0
   47.1460  -39.1624   17.1834 C   0  0  0  0  0  0
   46.1299  -39.3485   18.1918 C   0  0  0  0  0  0
   46.3746  -40.2007   19.2999 C   0  0  0  0  0  0
   47.6194  -40.8716   19.4210 C   0  0  0  0  0  0
   48.6291  -40.6995   18.4353 C   0  0  0  0  0  0
   48.3973  -39.8502   17.3247 C   0  0  0  0  0  0
   48.5235  -34.7051   13.8168 C   0  0  0  0  0  0
   47.1034  -35.0252   14.3217 C   0  0  0  0  0  0
   49.1405  -33.4655   23.5155 O   0  0  0  0  0  0
   47.6043  -32.6432   22.1264 O   0  0  0  0  0  0
   48.7258  -33.2006   22.3609 C   0  0  0  0  0  0
   51.5558  -32.9969   21.5261 H   0  0  0  0  0  0
   47.3510  -32.4527   21.2446 H   0  0  0  0  0  0
  1  2  1  0  0  0
  1 11  1  0  0  0
  1 42  1  0  0  0
  2  3  1  0  0  0
  2 41  1  0  0  0
  3  4  1  0  0  0
  4  5  2  0  0  0
  4  6  1  0  0  0
  5  7  1  0  0  0
  6  8  2  0  0  0
  7  9  2  0  0  0
  8  9  1  0  0  0
  9 10  1  0  0  0
 10 37  1  0  0  0
 11 12  2  0  0  0
 11 16  1  0  0  0
 12 13  1  0  0  0
 12 23  1  0  0  0
 13 14  2  0  0  0
 14 15  1  0  0  0
 15 16  2  0  0  0
 17 18  2  0  0  0
 17 22  1  0  0  0
 17 23  1  0  0  0
 18 19  1  0  0  0
 19 20  2  0  0  0
 20 21  1  0  0  0
 21 22  2  0  0  0
 23 24  2  0  0  0
 25 26  1  0  0  0
 25 29  1  0  0  0
 26 27  2  0  0  0
 26 31  1  0  0  0
 27 28  1  0  0  0
 28 29  2  0  0  0
 28 38  1  0  0  0
 29 30  1  0  0  0
 31 32  2  0  0  0
 31 36  1  0  0  0
 32 33  1  0  0  0
 33 34  2  0  0  0
 34 35  1  0  0  0
 35 36  2  0  0  0
 37 38  1  0  0  0
 39 41  2  0  0  0
 40 41  1  0  0  0
 40 43  1  0  0  0
M  END
>  <CHROM.0>
-170.08169114,63.09890885,-58.81454753,-150.30897043,-178.38098846

>  <CHROM.1>
-34.70110902,164.84662686,-93.35551396,-23.75793815,128.35479123,147.39839369
-46.87588274,-101.96326875,-86.37423320,-92.55338528,86.71836795,-47.18303794
-4.96291413,50.13877364,-35.72449600,18.83519290,0.56247517,0.59656851,1.72008714

>  <FORMUL>
      570    C34 H30 N2 O5

>  <HET>
 570  D 200      41

>  <HETNAM>
     570 2-(2-BENZOYL-PHENYLAMINO)-3-{4-[2-(5-METHYL-2-PHENYL-OX
   2 570 AZOL-4-YL)-ETHOXY]-PHENYL}-PROPIONIC ACID

>  <HETSYN>
     570 GI262570

>  <Name>
570.pdb

>  <RI>
3.3434e+07

>  <Rbt.Current_Directory>
/home/malgorzata/Desktop/rDOCK_IFD/Wyniki/14_ppar-gamma/IFD

>  <Rbt.Executable>
rbdock ($Id: //depot/dev/client3/rdock/2013.1/src/exe/rbdock.cxx#4 $)

>  <Rbt.Library>
libRbt.so (2013.1, Build901 2013/11/27)

>  <Rbt.Parameter_File>
/home/malgorzata/Desktop/rDock_2013.1_src/data/scripts/dock.prm

>  <Rbt.Receptor>
cavity.prm

>  <SCORE>
23.4278

>  <SCORE.INTER>
13.0018

>  <SCORE.INTER.CONST>
1

>  <SCORE.INTER.POLAR>
-0.0202035

>  <SCORE.INTER.REPUL>
0.00458993

>  <SCORE.INTER.ROT>
12

>  <SCORE.INTER.VDW>
-4.35244

>  <SCORE.INTER.norm>
0.317118

>  <SCORE.INTRA>
18.3081

>  <SCORE.INTRA.DIHEDRAL>
37.088

>  <SCORE.INTRA.DIHEDRAL.0>
12.9748

>  <SCORE.INTRA.POLAR>
0.058673

>  <SCORE.INTRA.POLAR.0>
-0.058673

>  <SCORE.INTRA.REPUL>
0

>  <SCORE.INTRA.REPUL.0>
0

>  <SCORE.INTRA.VDW>
-0.435336

>  <SCORE.INTRA.VDW.0>
-4.98062

>  <SCORE.INTRA.norm>
0.44654

>  <SCORE.RESTR>
0

>  <SCORE.RESTR.CAVITY>
0

>  <SCORE.RESTR.norm>
0

>  <SCORE.SYSTEM>
-7.88214

>  <SCORE.SYSTEM.CONST>
0

>  <SCORE.SYSTEM.DIHEDRAL>
5.2674

>  <SCORE.SYSTEM.POLAR>
-2.36913

>  <SCORE.SYSTEM.REPUL>
0.0184531

>  <SCORE.SYSTEM.VDW>
-2.55307

>  <SCORE.SYSTEM.norm>
-0.192247

>  <SCORE.heavy>
41

>  <SCORE.norm>
0.57141

$$$$
570.pdb
  rDOCK(R)          3D
libRbt.so/2013.1/901 2013/11/27
 43 47  0  0  0  0  0  0  0  0999 V2000
   47.5421  -37.0187   18.1517 N   0  0  0  0  0  0
   46.2895  -37.8214   18.4114 C   0  0  0  0  0  0
   46.5429  -39.3613   18.4342 C   0  0  0  0  0  0
   47.3624  -39.8856   17.2496 C   0  0  0  0  0  0
   47.0844  -39.3655   15.9430 C   0  0  0  0  0  0
   48.3860  -40.8742   17.4261 C   0  0  0  0  0  0
   47.8117  -39.8170   14.8253 C   0  0  0  0  0  0
   49.1219  -41.3345   16.3107 C   0  0  0  0  0  0
   48.8391  -40.8026   14.9720 C   0  0  0  0  0  0
   49.5002  -41.1711   13.7614 O   0  0  0  0  0  0
   47.8568  -35.9228   17.2388 C   0  0  0  0  0  0
   49.0278  -35.0666   17.4598 C   0  0  0  0  0  0
   49.2601  -34.0096   16.5037 C   0  0  0  0  0  0
   48.3973  -33.8031   15.4018 C   0  0  0  0  0  0
   47.2786  -34.6333   15.2066 C   0  0  0  0  0  0
   47.0092  -35.6717   16.1004 C   0  0  0  0  0  0
   50.0211  -34.6448   20.0666 C   0  0  0  0  0  0
   51.1230  -34.8907   20.9701 C   0  0  0  0  0  0
   51.0930  -34.3880   22.3030 C   0  0  0  0  0  0
   49.9662  -33.6359   22.7483 C   0  0  0  0  0  0
   48.8760  -33.3898   21.8656 C   0  0  0  0  0  0
   48.9032  -33.8885   20.5398 C   0  0  0  0  0  0
   50.0741  -35.1877   18.6468 C   0  0  0  0  0  0
   51.1494  -35.7680   18.3917 O   0  0  0  0  0  0
   46.7191  -45.5890   15.1290 O   0  0  0  0  0  0
   47.0794  -44.6263   16.0651 C   0  0  0  0  0  0
   47.8576  -43.6869   15.3484 N   0  0  0  0  0  0
   47.9319  -44.1283   14.0447 C   0  0  0  0  0  0
   47.2114  -45.3618   13.8617 C   0  0  0  0  0  0
   47.0306  -46.2075   12.5947 C   0  0  0  0  0  0
   46.7647  -44.5700   17.4226 C   0  0  0  0  0  0
   45.6972  -45.3493   18.0031 C   0  0  0  0  0  0
   45.4168  -45.2499   19.3907 C   0  0  0  0  0  0
   46.1840  -44.3831   20.2119 C   0  0  0  0  0  0
   47.2394  -43.6106   19.6551 C   0  0  0  0  0  0
   47.5284  -43.7001   18.2705 C   0  0  0  0  0  0
   49.9232  -42.5390   13.5446 C   0  0  0  0  0  0
   48.7311  -43.3232   12.9633 C   0  0  0  0  0  0
   44.5560  -36.7002   19.5478 O   0  0  0  0  0  0
   46.1408  -37.6428   20.7990 O   0  0  0  0  0  0
   45.6047  -37.3781   19.6739 C   0  0  0  0  0  0
   48.3035  -37.2900   18.7137 H   0  0  0  0  0  0
   45.6746  -37.4680   21.5929 H   0  0  0  0  0  0
  1  2  1  0  0  0
  1 11  1  0  0  0
  1 42  1  0  0  0
  2  3  1  0  0  0
  2 41  1  0  0  0
  3  4  1  0  0  0
  4  5  2  0  0  0
  4  6  1  0  0  0
  5  7  1  0  0  0
  6  8  2  0  0  0
  7  9  2  0  0  0
  8  9  1  0  0  0
  9 10  1  0  0  0
 10 37  1  0  0  0
 11 12  2  0  0  0
 11 16  1  0  0  0
 12 13  1  0  0  0
 12 23  1  0  0  0
 13 14  2  0  0  0
 14 15  1  0  0  0
 15 16  2  0  0  0
 17 18  2  0  0  0
 17 22  1  0  0  0
 17 23  1  0  0  0
 18 19  1  0  0  0
 19 20  2  0  0  0
 20 21  1  0  0  0
 21 22  2  0  0  0
 23 24  2  0  0  0
 25 26  1  0  0  0
 25 29  1  0  0  0
 26 27  2  0  0  0
 26 31  1  0  0  0
 27 28  1  0  0  0
 28 29  2  0  0  0
 28 38  1  0  0  0
 29 30  1  0  0  0
 31 32  2  0  0  0
 31 36  1  0  0  0
 32 33  1  0  0  0
 33 34  2  0  0  0
 34 35  1  0  0  0
 35 36  2  0  0  0
 37 38  1  0  0  0
 39 41  2  0  0  0
 40 41  1  0  0  0
 40 43  1  0  0  0
M  END
>  <CHROM.0>
66.50119248,62.10154723,13.11882368,25.77139082,-175.77403394

>  <CHROM.1>
131.68703428,161.78085739,-48.37686069,105.55055961,-41.50320936,-143.80013850
85.48742446,-83.99753844,-179.72395721,-17.04587073,29.91187490,-97.23072367
-172.36707306,47.93920235,-39.44942315,17.43772497,-1.12897703,-1.20181860
-2.33030262

>  <FORMUL>
      570    C34 H30 N2 O5

>  <HET>
 570  D 200      41

>  <HETNAM>
     570 2-(2-BENZOYL-PHENYLAMINO)-3-{4-[2-(5-METHYL-2-PHENYL-OX
   2 570 AZOL-4-YL)-ETHOXY]-PHENYL}-PROPIONIC ACID

>  <HETSYN>
     570 GI262570

>  <Name>
570.pdb

>  <RI>
3.3434e+07

>  <Rbt.Current_Directory>
/home/malgorzata/Desktop/rDOCK_IFD/Wyniki/14_ppar-gamma/IFD

>  <Rbt.Executable>
rbdock ($Id: //depot/dev/client3/rdock/2013.1/src/exe/rbdock.cxx#4 $)

>  <Rbt.Library>
libRbt.so (2013.1, Build901 2013/11/27)

>  <Rbt.Parameter_File>
/home/malgorzata/Desktop/rDock_2013.1_src/data/scripts/dock.prm

>  <Rbt.Receptor>
cavity.prm

>  <SCORE>
-17.3856

>  <SCORE.INTER>
-16.5262

>  <SCORE.INTER.CONST>
1

>  <SCORE.INTER.POLAR>
-0.10304

>  <SCORE.INTER.REPUL>
0

>  <SCORE.INTER.ROT>
12

>  <SCORE.INTER.VDW>
-33.5759

>  <SCORE.INTER.norm>
-0.403078

>  <SCORE.INTRA>
7.79918

>  <SCORE.INTRA.DIHEDRAL>
16.6319

>  <SCORE.INTRA.DIHEDRAL.0>
12.9748

>  <SCORE.INTRA.POLAR>
0.058673

>  <SCORE.INTRA.POLAR.0>
-0.058673

>  <SCORE.INTRA.REPUL>
0

>  <SCORE.INTRA.REPUL.0>
0

>  <SCORE.INTRA.VDW>
-0.716234

>  <SCORE.INTRA.VDW.0>
-4.98062

>  <SCORE.INTRA.norm>
0.190224

>  <SCORE.RESTR>
0.414283

>  <SCORE.RESTR.CAVITY>
0.414283

>  <SCORE.RESTR.norm>
0.0101045

>  <SCORE.SYSTEM>
-9.07285

>  <SCORE.SYSTEM.CONST>
0

>  <SCORE.SYSTEM.DIHEDRAL>
1.42899

>  <SCORE.SYSTEM.POLAR>
-2.37934

>  <SCORE.SYSTEM.VDW>
-1.69759

>  <SCORE.SYSTEM.norm>
-0.221289

>  <SCORE.heavy>
41

>  <SCORE.norm>
-0.424039

$$$$
570.pdb
  rDOCK(R)          3D
libRbt.so/2013.1/901 2013/11/27
 43 47  0  0  0  0  0  0  0  0999 V2000
   47.2519  -39.3208   18.3383 N   0  0  0  0  0  0
   46.9689  -40.7070   18.8666 C   0  0  0  0  0  0
   48.1441  -41.7055   18.6261 C   0  0  0  0  0  0
   48.1652  -42.3335   17.2280 C   0  0  0  0  0  0
   48.8535  -43.5782   17.0484 C   0  0  0  0  0  0
   47.5180  -41.7037   16.1141 C   0  0  0  0  0  0
   48.8991  -44.1925   15.7825 C   0  0  0  0  0  0
   47.5580  -42.3119   14.8389 C   0  0  0  0  0  0
   48.2617  -43.5868   14.6532 C   0  0  0  0  0  0
   48.3816  -44.3132   13.4300 O   0  0  0  0  0  0
   46.5322  -38.0524   18.4208 C   0  0  0  0  0  0
   46.9293  -36.9025   17.6004 C   0  0  0  0  0  0
   46.1578  -35.6909   17.7482 C   0  0  0  0  0  0
   45.0672  -35.6105   18.6457 C   0  0  0  0  0  0
   44.7017  -36.7230   19.4251 C   0  0  0  0  0  0
   45.4131  -37.9199   19.3193 C   0  0  0  0  0  0
   48.6495  -35.7064   15.7109 C   0  0  0  0  0  0
   50.0738  -35.4717   15.6244 C   0  0  0  0  0  0
   50.5850  -34.4017   14.8345 C   0  0  0  0  0  0
   49.6833  -33.5561   14.1236 C   0  0  0  0  0  0
   48.2790  -33.7792   14.2039 C   0  0  0  0  0  0
   47.7679  -34.8423   14.9886 C   0  0  0  0  0  0
   48.1244  -36.8559   16.5573 C   0  0  0  0  0  0
   48.7143  -37.9320   16.3294 O   0  0  0  0  0  0
   47.8024  -40.2384   10.9297 O   0  0  0  0  0  0
   47.6343  -39.7564   12.2229 C   0  0  0  0  0  0
   48.4355  -40.5924   13.0359 N   0  0  0  0  0  0
   49.0265  -41.5224   12.2077 C   0  0  0  0  0  0
   48.6374  -41.3310   10.8344 C   0  0  0  0  0  0
   49.0413  -42.1257    9.5859 C   0  0  0  0  0  0
   46.8512  -38.6884   12.6600 C   0  0  0  0  0  0
   46.7701  -38.3051   14.0494 C   0  0  0  0  0  0
   45.9533  -37.2121   14.4396 C   0  0  0  0  0  0
   45.2126  -36.4932   13.4655 C   0  0  0  0  0  0
   45.2834  -36.8578   12.0934 C   0  0  0  0  0  0
   46.0946  -37.9482   11.6912 C   0  0  0  0  0  0
   49.4874  -44.0570   12.5308 C   0  0  0  0  0  0
   49.9862  -42.6208   12.7811 C   0  0  0  0  0  0
   45.6536  -41.4256   20.6852 O   0  0  0  0  0  0
   47.1761  -39.8517   21.0983 O   0  0  0  0  0  0
   46.5905  -40.6740   20.3210 C   0  0  0  0  0  0
   48.0954  -39.2594   17.8343 H   0  0  0  0  0  0
   46.9970  -39.8675   22.0179 H   0  0  0  0  0  0
  1  2  1  0  0  0
  1 11  1  0  0  0
  1 42  1  0  0  0
  2  3  1  0  0  0
  2 41  1  0  0  0
  3  4  1  0  0  0
  4  5  2  0  0  0
  4  6  1  0  0  0
  5  7  1  0  0  0
  6  8  2  0  0  0
  7  9  2  0  0  0
  8  9  1  0  0  0
  9 10  1  0  0  0
 10 37  1  0  0  0
 11 12  2  0  0  0
 11 16  1  0  0  0
 12 13  1  0  0  0
 12 23  1  0  0  0
 13 14  2  0  0  0
 14 15  1  0  0  0
 15 16  2  0  0  0
 17 18  2  0  0  0
 17 22  1  0  0  0
 17 23  1  0  0  0
 18 19  1  0  0  0
 19 20  2  0  0  0
 20 21  1  0  0  0
 21 22  2  0  0  0
 23 24  2  0  0  0
 25 26  1  0  0  0
 25 29  1  0  0  0
 26 27  2  0  0  0
 26 31  1  0  0  0
 27 28  1  0  0  0
 28 29  2  0  0  0
 28 38  1  0  0  0
 29 30  1  0  0  0
 31 32  2  0  0  0
 31 36  1  0  0  0
 32 33  1  0  0  0
 33 34  2  0  0  0
 34 35  1  0  0  0
 35 36  2  0  0  0
 37 38  1  0  0  0
 39 41  2  0  0  0
 40 41  1  0  0  0
 40 43  1  0  0  0
M  END
>  <CHROM.0>
-52.34053164,71.27361668,-171.21682905,23.27510076,60.51639372

>  <CHROM.1>
-174.04660441,-168.84434396,-82.61697621,138.91413329,-157.44713938,-90.77405094
-24.84465127,-177.01091955,134.60078964,179.69090058,119.18360357,-74.06739443
-175.24677376,47.62714021,-39.26211840,15.46403005,2.77284337,1.33026428
-0.45188477

>  <FORMUL>
      570    C34 H30 N2 O5

>  <HET>
 570  D 200      41

>  <HETNAM>
     570 2-(2-BENZOYL-PHENYLAMINO)-3-{4-[2-(5-METHYL-2-PHENYL-OX
   2 570 AZOL-4-YL)-ETHOXY]-PHENYL}-PROPIONIC ACID

>  <HETSYN>
     570 GI262570

>  <Name>
570.pdb

>  <RI>
3.3434e+07

>  <Rbt.Current_Directory>
/home/malgorzata/Desktop/rDOCK_IFD/Wyniki/14_ppar-gamma/IFD

>  <Rbt.Executable>
rbdock ($Id: //depot/dev/client3/rdock/2013.1/src/exe/rbdock.cxx#4 $)

>  <Rbt.Library>
libRbt.so (2013.1, Build901 2013/11/27)

>  <Rbt.Parameter_File>
/home/malgorzata/Desktop/rDock_2013.1_src/data/scripts/dock.prm

>  <Rbt.Receptor>
cavity.prm

>  <SCORE>
-10.6384

>  <SCORE.INTER>
-11.3251

>  <SCORE.INTER.CONST>
1

>  <SCORE.INTER.POLAR>
-0.314614

>  <SCORE.INTER.REPUL>
0

>  <SCORE.INTER.ROT>
12

>  <SCORE.INTER.VDW>
-27.6554

>  <SCORE.INTER.norm>
-0.276222

>  <SCORE.INTRA>
7.41012

>  <SCORE.INTRA.DIHEDRAL>
13.8025

>  <SCORE.INTRA.DIHEDRAL.0>
12.9748

>  <SCORE.INTRA.POLAR>
0.00188478

>  <SCORE.INTRA.POLAR.0>
-0.058673

>  <SCORE.INTRA.REPUL>
0.0701343

>  <SCORE.INTRA.REPUL.0>
0

>  <SCORE.INTRA.VDW>
0.151781

>  <SCORE.INTRA.VDW.0>
-4.98062

>  <SCORE.INTRA.norm>
0.180735

>  <SCORE.RESTR>
1.73359

>  <SCORE.RESTR.CAVITY>
1.73359

>  <SCORE.RESTR.norm>
0.0422828

>  <SCORE.SYSTEM>
-8.45698

>  <SCORE.SYSTEM.CONST>
0

>  <SCORE.SYSTEM.DIHEDRAL>
1.76238

>  <SCORE.SYSTEM.POLAR>
-2.30338

>  <SCORE.SYSTEM.VDW>
-1.50669

>  <SCORE.SYSTEM.norm>
-0.206268

>  <SCORE.heavy>
41

>  <SCORE.norm>
-0.259472

$$$$
570.pdb
  rDOCK(R)          3D
libRbt.so/2013.1/901 2013/11/27
 43 47  0  0  0  0  0  0  0  0999 V2000
   46.1595  -42.1294   18.6408 N   0  0  0  0  0  0
   45.3813  -41.3629   19.6837 C   0  0  0  0  0  0
   46.2513  -40.3201   20.4529 C   0  0  0  0  0  0
   46.9375  -39.2835   19.5562 C   0  0  0  0  0  0
   47.9438  -39.7326   18.6393 C   0  0  0  0  0  0
   46.5941  -37.8927   19.6208 C   0  0  0  0  0  0
   48.6007  -38.8168   17.7956 C   0  0  0  0  0  0
   47.2477  -36.9650   18.7784 C   0  0  0  0  0  0
   48.2780  -37.4230   17.8384 C   0  0  0  0  0  0
   49.0154  -36.6038   16.9308 O   0  0  0  0  0  0
   45.7688  -43.0562   17.5815 C   0  0  0  0  0  0
   46.6175  -43.2579   16.4017 C   0  0  0  0  0  0
   46.1505  -44.1953   15.4076 C   0  0  0  0  0  0
   44.9271  -44.8895   15.5591 C   0  0  0  0  0  0
   44.1259  -44.6824   16.6966 C   0  0  0  0  0  0
   44.5320  -43.7882   17.6893 C   0  0  0  0  0  0
   48.8125  -42.4569   14.8205 C   0  0  0  0  0  0
   48.2278  -42.9008   13.5746 C   0  0  0  0  0  0
   48.9654  -42.8187   12.3583 C   0  0  0  0  0  0
   50.2913  -42.2939   12.3712 C   0  0  0  0  0  0
   50.8755  -41.8555   13.5938 C   0  0  0  0  0  0
   50.1444  -41.9360   14.8046 C   0  0  0  0  0  0
   48.0071  -42.5503   16.1073 C   0  0  0  0  0  0
   48.5870  -42.0235   17.0790 O   0  0  0  0  0  0
   51.4215  -34.8931   21.7350 O   0  0  0  0  0  0
   52.5142  -35.3623   21.0146 C   0  0  0  0  0  0
   52.0847  -35.3879   19.6668 N   0  0  0  0  0  0
   50.7780  -34.9499   19.6462 C   0  0  0  0  0  0
   50.3082  -34.6241   20.9680 C   0  0  0  0  0  0
   48.9340  -34.1101   21.4161 C   0  0  0  0  0  0
   53.7716  -35.7394   21.4855 C   0  0  0  0  0  0
   54.9590  -35.6653   20.6679 C   0  0  0  0  0  0
   56.2133  -36.0666   21.1967 C   0  0  0  0  0  0
   56.3042  -36.5434   22.5304 C   0  0  0  0  0  0
   55.1440  -36.6207   23.3481 C   0  0  0  0  0  0
   53.8854  -36.2240   22.8312 C   0  0  0  0  0  0
   50.2765  -36.0166   17.3328 C   0  0  0  0  0  0
   49.9781  -34.8563   18.3016 C   0  0  0  0  0  0
   43.3814  -41.4367   18.4395 O   0  0  0  0  0  0
   44.0205  -39.4453   19.2086 O   0  0  0  0  0  0
   44.1670  -40.7054   19.0900 C   0  0  0  0  0  0
   47.1304  -41.9718   18.6836 H   0  0  0  0  0  0
   43.2803  -39.0211   18.8211 H   0  0  0  0  0  0
  1  2  1  0  0  0
  1 11  1  0  0  0
  1 42  1  0  0  0
  2  3  1  0  0  0
  2 41  1  0  0  0
  3  4  1  0  0  0
  4  5  2  0  0  0
  4  6  1  0  0  0
  5  7  1  0  0  0
  6  8  2  0  0  0
  7  9  2  0  0  0
  8  9  1  0  0  0
  9 10  1  0  0  0
 10 37  1  0  0  0
 11 12  2  0  0  0
 11 16  1  0  0  0
 12 13  1  0  0  0
 12 23  1  0  0  0
 13 14  2  0  0  0
 14 15  1  0  0  0
 15 16  2  0  0  0
 17 18  2  0  0  0
 17 22  1  0  0  0
 17 23  1  0  0  0
 18 19  1  0  0  0
 19 20  2  0  0  0
 20 21  1  0  0  0
 21 22  2  0  0  0
 23 24  2  0  0  0
 25 26  1  0  0  0
 25 29  1  0  0  0
 26 27  2  0  0  0
 26 31  1  0  0  0
 27 28  1  0  0  0
 28 29  2  0  0  0
 28 38  1  0  0  0
 29 30  1  0  0  0
 31 32  2  0  0  0
 31 36  1  0  0  0
 32 33  1  0  0  0
 33 34  2  0  0  0
 34 35  1  0  0  0
 35 36  2  0  0  0
 37 38  1  0  0  0
 39 41  2  0  0  0
 40 41  1  0  0  0
 40 43  1  0  0  0
M  END
>  <CHROM.0>
64.96385675,170.86421910,-11.72947621,15.34949824,-178.02363771

>  <CHROM.1>
-170.90559310,155.91791224,57.22815048,53.09216000,-65.65040770,-89.45934110
-74.05478349,-165.50121967,9.37423083,-153.05617846,38.30135394,127.82343931
178.21804610,48.88659111,-39.27869530,18.33620510,2.25879008,-0.28496868
-2.32294101

>  <FORMUL>
      570    C34 H30 N2 O5

>  <HET>
 570  D 200      41

>  <HETNAM>
     570 2-(2-BENZOYL-PHENYLAMINO)-3-{4-[2-(5-METHYL-2-PHENYL-OX
   2 570 AZOL-4-YL)-ETHOXY]-PHENYL}-PROPIONIC ACID

>  <HETSYN>
     570 GI262570

>  <Name>
570.pdb

>  <RI>
3.3434e+07

>  <Rbt.Current_Directory>
/home/malgorzata/Desktop/rDOCK_IFD/Wyniki/14_ppar-gamma/IFD

>  <Rbt.Executable>
rbdock ($Id: //depot/dev/client3/rdock/2013.1/src/exe/rbdock.cxx#4 $)

>  <Rbt.Library>
libRbt.so (2013.1, Build901 2013/11/27)

>  <Rbt.Parameter_File>
/home/malgorzata/Desktop/rDock_2013.1_src/data/scripts/dock.prm

>  <Rbt.Receptor>
cavity.prm

>  <SCORE>
-19.0793

>  <SCORE.INTER>
-18.9226

>  <SCORE.INTER.CONST>
1

>  <SCORE.INTER.POLAR>
-0.139507

>  <SCORE.INTER.REPUL>
0

>  <SCORE.INTER.ROT>
12

>  <SCORE.INTER.VDW>
-35.8483

>  <SCORE.INTER.norm>
-0.461527

>  <SCORE.INTRA>
6.91974

>  <SCORE.INTRA.DIHEDRAL>
10.5985

>  <SCORE.INTRA.DIHEDRAL.0>
12.9748

>  <SCORE.INTRA.POLAR>
0.0124721

>  <SCORE.INTRA.POLAR.0>
-0.058673

>  <SCORE.INTRA.REPUL>
0

>  <SCORE.INTRA.REPUL.0>
0

>  <SCORE.INTRA.VDW>
1.57811

>  <SCORE.INTRA.VDW.0>
-4.98062

>  <SCORE.INTRA.norm>
0.168774

>  <SCORE.RESTR>
0

>  <SCORE.RESTR.CAVITY>
0

>  <SCORE.RESTR.norm>
0

>  <SCORE.SYSTEM>
-7.07645

>  <SCORE.SYSTEM.CONST>
0

>  <SCORE.SYSTEM.DIHEDRAL>
1.0944

>  <SCORE.SYSTEM.POLAR>
-1.76594

>  <SCORE.SYSTEM.VDW>
-1.61946

>  <SCORE.SYSTEM.norm>
-0.172596

>  <SCORE.heavy>
41

>  <SCORE.norm>
-0.465349

$$$$
570.pdb
  rDOCK(R)          3D
libRbt.so/2013.1/901 2013/11/27
 43 47  0  0  0  0  0  0  0  0999 V2000
   48.1183  -41.4868   16.6757 N   0  0  0  0  0  0
   47.8475  -41.4287   15.1911 C   0  0  0  0  0  0
   47.2825  -40.0503   14.7255 C   0  0  0  0  0  0
   47.8093  -38.8494   15.5192 C   0  0  0  0  0  0
   47.1562  -37.5836   15.3567 C   0  0  0  0  0  0
   48.9288  -38.9711   16.4069 C   0  0  0  0  0  0
   47.6048  -36.4528   16.0653 C   0  0  0  0  0  0
   49.3872  -37.8420   17.1229 C   0  0  0  0  0  0
   48.7194  -36.5451   16.9584 C   0  0  0  0  0  0
   49.0702  -35.3269   17.6150 O   0  0  0  0  0  0
   47.2687  -41.3371   17.8544 C   0  0  0  0  0  0
   46.0109  -42.0820   17.9799 C   0  0  0  0  0  0
   45.2382  -41.8712   19.1815 C   0  0  0  0  0  0
   45.6700  -40.9839   20.1952 C   0  0  0  0  0  0
   46.8784  -40.2772   20.0569 C   0  0  0  0  0  0
   47.6650  -40.4460   18.9156 C   0  0  0  0  0  0
   44.8310  -44.4975   17.1237 C   0  0  0  0  0  0
   44.1346  -45.1458   16.0346 C   0  0  0  0  0  0
   43.5861  -46.4503   16.1999 C   0  0  0  0  0  0
   43.7260  -47.1214   17.4504 C   0  0  0  0  0  0
   44.4092  -46.4901   18.5288 C   0  0  0  0  0  0
   44.9556  -45.1930   18.3673 C   0  0  0  0  0  0
   45.4118  -43.1058   16.9257 C   0  0  0  0  0  0
   45.4604  -42.7694   15.7247 O   0  0  0  0  0  0
   51.7960  -34.8220   22.0667 O   0  0  0  0  0  0
   52.9501  -35.0293   21.3196 C   0  0  0  0  0  0
   52.6080  -34.6536   19.9992 N   0  0  0  0  0  0
   51.2884  -34.2557   20.0168 C   0  0  0  0  0  0
   50.7233  -34.3551   21.3378 C   0  0  0  0  0  0
   49.3039  -34.0282   21.8191 C   0  0  0  0  0  0
   54.1896  -35.5066   21.7449 C   0  0  0  0  0  0
   54.3442  -36.3057   22.9372 C   0  0  0  0  0  0
   55.6304  -36.7616   23.3266 C   0  0  0  0  0  0
   56.7691  -36.4323   22.5460 C   0  0  0  0  0  0
   56.6326  -35.6475   21.3687 C   0  0  0  0  0  0
   55.3536  -35.1852   20.9699 C   0  0  0  0  0  0
   50.4469  -34.8784   17.6409 C   0  0  0  0  0  0
   50.5718  -33.7747   18.7086 C   0  0  0  0  0  0
   50.0898  -42.1376   15.0397 O   0  0  0  0  0  0
   49.0406  -41.6872   13.1261 O   0  0  0  0  0  0
   49.0680  -41.7977   14.3951 C   0  0  0  0  0  0
   49.0623  -41.6618   16.8941 H   0  0  0  0  0  0
   48.2702  -41.3661   12.7002 H   0  0  0  0  0  0
  1  2  1  0  0  0
  1 11  1  0  0  0
  1 42  1  0  0  0
  2  3  1  0  0  0
  2 41  1  0  0  0
  3  4  1  0  0  0
  4  5  2  0  0  0
  4  6  1  0  0  0
  5  7  1  0  0  0
  6  8  2  0  0  0
  7  9  2  0  0  0
  8  9  1  0  0  0
  9 10  1  0  0  0
 10 37  1  0  0  0
 11 12  2  0  0  0
 11 16  1  0  0  0
 12 13  1  0  0  0
 12 23  1  0  0  0
 13 14  2  0  0  0
 14 15  1  0  0  0
 15 16  2  0  0  0
 17 18  2  0  0  0
 17 22  1  0  0  0
 17 23  1  0  0  0
 18 19  1  0  0  0
 19 20  2  0  0  0
 20 21  1  0  0  0
 21 22  2  0  0  0
 23 24  2  0  0  0
 25 26  1  0  0  0
 25 29  1  0  0  0
 26 27  2  0  0  0
 26 31  1  0  0  0
 27 28  1  0  0  0
 28 29  2  0  0  0
 28 38  1  0  0  0
 29 30  1  0  0  0
 31 32  2  0  0  0
 31 36  1  0  0  0
 32 33  1  0  0  0
 33 34  2  0  0  0
 34 35  1  0  0  0
 35 36  2  0  0  0
 37 38  1  0  0  0
 39 41  2  0  0  0
 40 41  1  0  0  0
 40 43  1  0  0  0
M  END
>  <CHROM.0>
66.23138711,-174.59722585,168.94872853,-158.93590123,177.99726409

>  <CHROM.1>
60.60189001,49.75020585,33.01499509,2.44988948,-167.50379878,-131.45657793
-165.18256379,133.02133079,169.30039056,22.74290156,64.23075662,105.37180530
0.96189600,48.98668239,-39.23644888,18.25580995,2.92592051,0.88077357,2.32091934

>  <FORMUL>
      570    C34 H30 N2 O5

>  <HET>
 570  D 200      41

>  <HETNAM>
     570 2-(2-BENZOYL-PHENYLAMINO)-3-{4-[2-(5-METHYL-2-PHENYL-OX
   2 570 AZOL-4-YL)-ETHOXY]-PHENYL}-PROPIONIC ACID

>  <HETSYN>
     570 GI262570

>  <Name>
570.pdb

>  <RI>
3.3434e+07

>  <Rbt.Current_Directory>
/home/malgorzata/Desktop/rDOCK_IFD/Wyniki/14_ppar-gamma/IFD

>  <Rbt.Executable>
rbdock ($Id: //depot/dev/client3/rdock/2013.1/src/exe/rbdock.cxx#4 $)

>  <Rbt.Library>
libRbt.so (2013.1, Build901 2013/11/27)

>  <Rbt.Parameter_File>
/home/malgorzata/Desktop/rDock_2013.1_src/data/scripts/dock.prm

>  <Rbt.Receptor>
cavity.prm

>  <SCORE>
-18.0809

>  <SCORE.INTER>
-21.9744

>  <SCORE.INTER.CONST>
1

>  <SCORE.INTER.POLAR>
-0.450783

>  <SCORE.INTER.REPUL>
0.0125686

>  <SCORE.INTER.ROT>
12

>  <SCORE.INTER.VDW>
-37.9046

>  <SCORE.INTER.norm>
-0.535961

>  <SCORE.INTRA>
10.9536

>  <SCORE.INTRA.DIHEDRAL>
18.2746

>  <SCORE.INTRA.DIHEDRAL.0>
12.9748

>  <SCORE.INTRA.POLAR>
0.058673

>  <SCORE.INTRA.POLAR.0>
-0.058673

>  <SCORE.INTRA.REPUL>
0

>  <SCORE.INTRA.REPUL.0>
0

>  <SCORE.INTRA.VDW>
1.61681

>  <SCORE.INTRA.VDW.0>
-4.98062

>  <SCORE.INTRA.norm>
0.267161

>  <SCORE.RESTR>
0.0446768

>  <SCORE.RESTR.CAVITY>
0.0446768

>  <SCORE.RESTR.norm>
0.00108968

>  <SCORE.SYSTEM>
-7.10481

>  <SCORE.SYSTEM.CONST>
0

>  <SCORE.SYSTEM.DIHEDRAL>
1.1667

>  <SCORE.SYSTEM.POLAR>
-1.76594

>  <SCORE.SYSTEM.VDW>
-1.68397

>  <SCORE.SYSTEM.norm>
-0.173288

>  <SCORE.heavy>
41

>  <SCORE.norm>
-0.440998

$$$$
570.pdb
  rDOCK(R)          3D
libRbt.so/2013.1/901 2013/11/27
 43 47  0  0  0  0  0  0  0  0999 V2000
   47.0517  -42.4840   13.5019 N   0  0  0  0  0  0
   47.8478  -41.2669   13.0946 C   0  0  0  0  0  0
   48.9843  -40.9130   14.1039 C   0  0  0  0  0  0
   48.5159  -40.1308   15.3361 C   0  0  0  0  0  0
   47.7200  -38.9552   15.1371 C   0  0  0  0  0  0
   48.8578  -40.5502   16.6641 C   0  0  0  0  0  0
   47.2667  -38.2051   16.2389 C   0  0  0  0  0  0
   48.4080  -39.8042   17.7771 C   0  0  0  0  0  0
   47.5924  -38.6004   17.5754 C   0  0  0  0  0  0
   47.0693  -37.7550   18.6002 O   0  0  0  0  0  0
   47.4093  -43.8803   13.7382 C   0  0  0  0  0  0
   47.0797  -44.5416   15.0059 C   0  0  0  0  0  0
   47.4711  -45.9243   15.1482 C   0  0  0  0  0  0
   48.1456  -46.6147   14.1139 C   0  0  0  0  0  0
   48.4544  -45.9639   12.9056 C   0  0  0  0  0  0
   48.0965  -44.6277   12.7152 C   0  0  0  0  0  0
   46.1514  -44.3944   17.6661 C   0  0  0  0  0  0
   45.6581  -45.7341   17.8963 C   0  0  0  0  0  0
   45.4887  -46.2257   19.2228 C   0  0  0  0  0  0
   45.8090  -45.3885   20.3319 C   0  0  0  0  0  0
   46.2943  -44.0674   20.1146 C   0  0  0  0  0  0
   46.4637  -43.5759   18.7967 C   0  0  0  0  0  0
   46.3279  -43.8897   16.2421 C   0  0  0  0  0  0
   45.7265  -42.8163   16.0324 O   0  0  0  0  0  0
   50.8487  -34.1872   20.4868 O   0  0  0  0  0  0
   51.8757  -34.9385   19.9267 C   0  0  0  0  0  0
   51.2459  -35.7718   18.9724 N   0  0  0  0  0  0
   49.8969  -35.4912   19.0124 C   0  0  0  0  0  0
   49.5968  -34.4729   19.9856 C   0  0  0  0  0  0
   48.2447  -33.8586   20.3699 C   0  0  0  0  0  0
   53.2386  -34.9074   20.2209 C   0  0  0  0  0  0
   53.9474  -33.6765   20.4788 C   0  0  0  0  0  0
   55.3363  -33.7023   20.7687 C   0  0  0  0  0  0
   56.0334  -34.9380   20.8046 C   0  0  0  0  0  0
   55.3489  -36.1585   20.5543 C   0  0  0  0  0  0
   53.9621  -36.1458   20.2624 C   0  0  0  0  0  0
   47.4751  -36.3674   18.6834 C   0  0  0  0  0  0
   48.8871  -36.2435   18.0793 C   0  0  0  0  0  0
   48.9953  -42.4828   11.4338 O   0  0  0  0  0  0
   48.3044  -40.4348   10.8914 O   0  0  0  0  0  0
   48.3997  -41.4116   11.7040 C   0  0  0  0  0  0
   46.0943  -42.2978   13.6357 H   0  0  0  0  0  0
   48.6704  -40.5033   10.0315 H   0  0  0  0  0  0
  1  2  1  0  0  0
  1 11  1  0  0  0
  1 42  1  0  0  0
  2  3  1  0  0  0
  2 41  1  0  0  0
  3  4  1  0  0  0
  4  5  2  0  0  0
  4  6  1  0  0  0
  5  7  1  0  0  0
  6  8  2  0  0  0
  7  9  2  0  0  0
  8  9  1  0  0  0
  9 10  1  0  0  0
 10 37  1  0  0  0
 11 12  2  0  0  0
 11 16  1  0  0  0
 12 13  1  0  0  0
 12 23  1  0  0  0
 13 14  2  0  0  0
 14 15  1  0  0  0
 15 16  2  0  0  0
 17 18  2  0  0  0
 17 22  1  0  0  0
 17 23  1  0  0  0
 18 19  1  0  0  0
 19 20  2  0  0  0
 20 21  1  0  0  0
 21 22  2  0  0  0
 23 24  2  0  0  0
 25 26  1  0  0  0
 25 29  1  0  0  0
 26 27  2  0  0  0
 26 31  1  0  0  0
 27 28  1  0  0  0
 28 29  2  0  0  0
 28 38  1  0  0  0
 29 30  1  0  0  0
 31 32  2  0  0  0
 31 36  1  0  0  0
 32 33  1  0  0  0
 33 34  2  0  0  0
 34 35  1  0  0  0
 35 36  2  0  0  0
 37 38  1  0  0  0
 39 41  2  0  0  0
 40 41  1  0  0  0
 40 43  1  0  0  0
M  END
>  <CHROM.0>
87.15432244,63.58340035,-159.90964922,-116.62987265,168.95019786

>  <CHROM.1>
-60.03237593,125.37463563,-81.16625436,-48.76946269,-50.89892489,-62.45045375
-27.50088733,-168.07530530,-50.98431587,-39.91512246,150.93808744,-129.19854136
177.94950545,48.88929238,-39.99659006,17.03586208,-2.45233425,0.96927188
1.28308608

>  <FORMUL>
      570    C34 H30 N2 O5

>  <HET>
 570  D 200      41

>  <HETNAM>
     570 2-(2-BENZOYL-PHENYLAMINO)-3-{4-[2-(5-METHYL-2-PHENYL-OX
   2 570 AZOL-4-YL)-ETHOXY]-PHENYL}-PROPIONIC ACID

>  <HETSYN>
     570 GI262570

>  <Name>
570.pdb

>  <RI>
3.3434e+07

>  <Rbt.Current_Directory>
/home/malgorzata/Desktop/rDOCK_IFD/Wyniki/14_ppar-gamma/IFD

>  <Rbt.Executable>
rbdock ($Id: //depot/dev/client3/rdock/2013.1/src/exe/rbdock.cxx#4 $)

>  <Rbt.Library>
libRbt.so (2013.1, Build901 2013/11/27)

>  <Rbt.Parameter_File>
/home/malgorzata/Desktop/rDock_2013.1_src/data/scripts/dock.prm

>  <Rbt.Receptor>
cavity.prm

>  <SCORE>
-5.22065

>  <SCORE.INTER>
-16.8598

>  <SCORE.INTER.CONST>
1

>  <SCORE.INTER.POLAR>
-0.367785

>  <SCORE.INTER.REPUL>
0.190862

>  <SCORE.INTER.ROT>
12

>  <SCORE.INTER.VDW>
-33.9637

>  <SCORE.INTER.norm>
-0.411215

>  <SCORE.INTRA>
18.3915

>  <SCORE.INTRA.DIHEDRAL>
30.5798

>  <SCORE.INTRA.DIHEDRAL.0>
12.9748

>  <SCORE.INTRA.POLAR>
0.0584704

>  <SCORE.INTRA.POLAR.0>
-0.058673

>  <SCORE.INTRA.REPUL>
0

>  <SCORE.INTRA.REPUL.0>
0

>  <SCORE.INTRA.VDW>
2.90284

>  <SCORE.INTRA.VDW.0>
-4.98062

>  <SCORE.INTRA.norm>
0.448574

>  <SCORE.RESTR>
0.00706001

>  <SCORE.RESTR.CAVITY>
0.00706001

>  <SCORE.RESTR.norm>
0.000172195

>  <SCORE.SYSTEM>
-6.7594

>  <SCORE.SYSTEM.CONST>
0

>  <SCORE.SYSTEM.DIHEDRAL>
7.81791

>  <SCORE.SYSTEM.POLAR>
-2.36411

>  <SCORE.SYSTEM.VDW>
-2.63037

>  <SCORE.SYSTEM.norm>
-0.164863

>  <SCORE.heavy>
41

>  <SCORE.norm>
-0.127333

$$$$
570.pdb
  rDOCK(R)          3D
libRbt.so/2013.1/901 2013/11/27
 43 47  0  0  0  0  0  0  0  0999 V2000
   46.6366  -38.7547   14.2918 N   0  0  0  0  0  0
   45.8134  -37.5108   14.0553 C   0  0  0  0  0  0
   45.7182  -36.5915   15.3130 C   0  0  0  0  0  0
   47.0718  -36.2142   15.9254 C   0  0  0  0  0  0
   47.1416  -35.9828   17.3384 C   0  0  0  0  0  0
   48.2505  -36.0898   15.1183 C   0  0  0  0  0  0
   48.3632  -35.6344   17.9452 C   0  0  0  0  0  0
   49.4819  -35.7403   15.7174 C   0  0  0  0  0  0
   49.5556  -35.5036   17.1643 C   0  0  0  0  0  0
   50.7251  -35.1481   17.9020 O   0  0  0  0  0  0
   46.9993  -39.5009   15.4939 C   0  0  0  0  0  0
   47.3590  -40.9216   15.4228 C   0  0  0  0  0  0
   47.7051  -41.5757   16.6628 C   0  0  0  0  0  0
   47.6967  -40.8816   17.8954 C   0  0  0  0  0  0
   47.3480  -39.5197   17.9445 C   0  0  0  0  0  0
   47.0069  -38.8386   16.7740 C   0  0  0  0  0  0
   47.6104  -43.3161   13.9521 C   0  0  0  0  0  0
   47.9838  -43.8555   12.6634 C   0  0  0  0  0  0
   48.1773  -45.2568   12.4930 C   0  0  0  0  0  0
   48.0012  -46.1336   13.6037 C   0  0  0  0  0  0
   47.6324  -45.6113   14.8763 C   0  0  0  0  0  0
   47.4393  -44.2184   15.0486 C   0  0  0  0  0  0
   47.4115  -41.8168   14.1135 C   0  0  0  0  0  0
   47.3364  -41.2193   13.0202 O   0  0  0  0  0  0
   52.0001  -35.0386   22.1988 O   0  0  0  0  0  0
   53.2528  -34.9621   21.6005 C   0  0  0  0  0  0
   53.0483  -34.2300   20.4072 N   0  0  0  0  0  0
   51.7073  -33.9170   20.3450 C   0  0  0  0  0  0
   50.9912  -34.4281   21.4852 C   0  0  0  0  0  0
   49.4994  -34.3243   21.8273 C   0  0  0  0  0  0
   54.4657  -35.4853   22.0479 C   0  0  0  0  0  0
   54.5475  -36.4277   23.1384 C   0  0  0  0  0  0
   55.8093  -36.9249   23.5562 C   0  0  0  0  0  0
   56.9949  -36.4964   22.9043 C   0  0  0  0  0  0
   56.9303  -35.5700   21.8280 C   0  0  0  0  0  0
   55.6763  -35.0652   21.4023 C   0  0  0  0  0  0
   51.2903  -33.8200   17.7842 C   0  0  0  0  0  0
   51.1221  -33.1053   19.1388 C   0  0  0  0  0  0
   46.4763  -37.3706   11.7982 O   0  0  0  0  0  0
   46.6207  -35.5072   13.0118 O   0  0  0  0  0  0
   46.3165  -36.7363   12.8693 C   0  0  0  0  0  0
   47.0046  -39.1427   13.4651 H   0  0  0  0  0  0
   46.9387  -35.0155   12.2803 H   0  0  0  0  0  0
  1  2  1  0  0  0
  1 11  1  0  0  0
  1 42  1  0  0  0
  2  3  1  0  0  0
  2 41  1  0  0  0
  3  4  1  0  0  0
  4  5  2  0  0  0
  4  6  1  0  0  0
  5  7  1  0  0  0
  6  8  2  0  0  0
  7  9  2  0  0  0
  8  9  1  0  0  0
  9 10  1  0  0  0
 10 37  1  0  0  0
 11 12  2  0  0  0
 11 16  1  0  0  0
 12 13  1  0  0  0
 12 23  1  0  0  0
 13 14  2  0  0  0
 14 15  1  0  0  0
 15 16  2  0  0  0
 17 18  2  0  0  0
 17 22  1  0  0  0
 17 23  1  0  0  0
 18 19  1  0  0  0
 19 20  2  0  0  0
 20 21  1  0  0  0
 21 22  2  0  0  0
 23 24  2  0  0  0
 25 26  1  0  0  0
 25 29  1  0  0  0
 26 27  2  0  0  0
 26 31  1  0  0  0
 27 28  1  0  0  0
 28 29  2  0  0  0
 28 38  1  0  0  0
 29 30  1  0  0  0
 31 32  2  0  0  0
 31 36  1  0  0  0
 32 33  1  0  0  0
 33 34  2  0  0  0
 34 35  1  0  0  0
 35 36  2  0  0  0
 37 38  1  0  0  0
 39 41  2  0  0  0
 40 41  1  0  0  0
 40 43  1  0  0  0
M  END
>  <CHROM.0>
71.01533867,66.10666274,7.73059336,-130.07905466,-57.93426796

>  <CHROM.1>
23.23500762,156.01491232,53.08998970,51.26276092,-149.45610953,-107.81686833
113.18905439,-171.96697259,-163.10175701,11.68007367,61.46639638,53.84244736
179.74357156,49.51162362,-37.87106328,17.22513002,2.42567490,0.76434836,-2.95146477

>  <FORMUL>
      570    C34 H30 N2 O5

>  <HET>
 570  D 200      41

>  <HETNAM>
     570 2-(2-BENZOYL-PHENYLAMINO)-3-{4-[2-(5-METHYL-2-PHENYL-OX
   2 570 AZOL-4-YL)-ETHOXY]-PHENYL}-PROPIONIC ACID

>  <HETSYN>
     570 GI262570

>  <Name>
570.pdb

>  <RI>
3.3434e+07

>  <Rbt.Current_Directory>
/home/malgorzata/Desktop/rDOCK_IFD/Wyniki/14_ppar-gamma/IFD

>  <Rbt.Executable>
rbdock ($Id: //depot/dev/client3/rdock/2013.1/src/exe/rbdock.cxx#4 $)

>  <Rbt.Library>
libRbt.so (2013.1, Build901 2013/11/27)

>  <Rbt.Parameter_File>
/home/malgorzata/Desktop/rDock_2013.1_src/data/scripts/dock.prm

>  <Rbt.Receptor>
cavity.prm

>  <SCORE>
-11.8799

>  <SCORE.INTER>
-10.8143

>  <SCORE.INTER.CONST>
1

>  <SCORE.INTER.POLAR>
-0.171611

>  <SCORE.INTER.REPUL>
0.262043

>  <SCORE.INTER.ROT>
12

>  <SCORE.INTER.VDW>
-28.9411

>  <SCORE.INTER.norm>
-0.263764

>  <SCORE.INTRA>
7.228

>  <SCORE.INTRA.DIHEDRAL>
8.30129

>  <SCORE.INTRA.DIHEDRAL.0>
12.9748

>  <SCORE.INTRA.POLAR>
-0.0127949

>  <SCORE.INTRA.POLAR.0>
-0.058673

>  <SCORE.INTRA.REPUL>
0

>  <SCORE.INTRA.REPUL.0>
0

>  <SCORE.INTRA.VDW>
3.12086

>  <SCORE.INTRA.VDW.0>
-4.98062

>  <SCORE.INTRA.norm>
0.176293

>  <SCORE.RESTR>
0

>  <SCORE.RESTR.CAVITY>
0

>  <SCORE.RESTR.norm>
0

>  <SCORE.SYSTEM>
-8.29358

>  <SCORE.SYSTEM.CONST>
0

>  <SCORE.SYSTEM.DIHEDRAL>
3.68452

>  <SCORE.SYSTEM.POLAR>
-2.34197

>  <SCORE.SYSTEM.VDW>
-2.17313

>  <SCORE.SYSTEM.norm>
-0.202283

>  <SCORE.heavy>
41

>  <SCORE.norm>
-0.289754

$$$$
570.pdb
  rDOCK(R)          3D
libRbt.so/2013.1/901 2013/11/27
 43 47  0  0  0  0  0  0  0  0999 V2000
   48.0284  -35.8511   14.5559 N   0  0  0  0  0  0
   46.5582  -36.1226   14.3422 C   0  0  0  0  0  0
   46.2116  -37.6443   14.3344 C   0  0  0  0  0  0
   46.7594  -38.4247   15.5346 C   0  0  0  0  0  0
   47.4256  -39.6708   15.2929 C   0  0  0  0  0  0
   46.6164  -37.9350   16.8748 C   0  0  0  0  0  0
   47.9453  -40.4220   16.3642 C   0  0  0  0  0  0
   47.1344  -38.6815   17.9575 C   0  0  0  0  0  0
   47.8175  -39.9574   17.7119 C   0  0  0  0  0  0
   48.3890  -40.8120   18.7025 O   0  0  0  0  0  0
   48.9115  -34.7568   14.1606 C   0  0  0  0  0  0
   50.0849  -34.4025   14.9672 C   0  0  0  0  0  0
   50.9007  -33.3078   14.4968 C   0  0  0  0  0  0
   50.5848  -32.6029   13.3117 C   0  0  0  0  0  0
   49.4548  -32.9559   12.5518 C   0  0  0  0  0  0
   48.6333  -34.0084   12.9607 C   0  0  0  0  0  0
   50.3672  -34.6894   17.7597 C   0  0  0  0  0  0
   51.0763  -35.3921   18.8059 C   0  0  0  0  0  0
   50.9159  -35.0135   20.1701 C   0  0  0  0  0  0
   50.0487  -33.9323   20.5051 C   0  0  0  0  0  0
   49.3454  -33.2354   19.4814 C   0  0  0  0  0  0
   49.5029  -33.6096   18.1241 C   0  0  0  0  0  0
   50.5545  -35.1073   16.3093 C   0  0  0  0  0  0
   51.2382  -36.1448   16.1903 O   0  0  0  0  0  0
   47.0647  -44.2493   16.3256 O   0  0  0  0  0  0
   48.3255  -43.6760   16.2036 C   0  0  0  0  0  0
   48.5833  -43.0793   17.4603 N   0  0  0  0  0  0
   47.4821  -43.3117   18.2562 C   0  0  0  0  0  0
   46.4721  -44.0625   17.5561 C   0  0  0  0  0  0
   45.0966  -44.5371   18.0420 C   0  0  0  0  0  0
   49.1755  -43.6673   15.0981 C   0  0  0  0  0  0
   48.8620  -44.3662   13.8745 C   0  0  0  0  0  0
   49.7659  -44.3276   12.7811 C   0  0  0  0  0  0
   50.9816  -43.6030   12.8875 C   0  0  0  0  0  0
   51.3035  -42.9085   14.0853 C   0  0  0  0  0  0
   50.4096  -42.9404   15.1847 C   0  0  0  0  0  0
   47.5997  -41.2529   19.8337 C   0  0  0  0  0  0
   47.4231  -42.7799   19.7293 C   0  0  0  0  0  0
   46.2996  -34.9139   16.3486 O   0  0  0  0  0  0
   44.4502  -35.3448   15.1826 O   0  0  0  0  0  0
   45.7128  -35.3914   15.3472 C   0  0  0  0  0  0
   48.4859  -36.5573   15.0669 H   0  0  0  0  0  0
   44.0482  -35.8432   14.4984 H   0  0  0  0  0  0
  1  2  1  0  0  0
  1 11  1  0  0  0
  1 42  1  0  0  0
  2  3  1  0  0  0
  2 41  1  0  0  0
  3  4  1  0  0  0
  4  5  2  0  0  0
  4  6  1  0  0  0
  5  7  1  0  0  0
  6  8  2  0  0  0
  7  9  2  0  0  0
  8  9  1  0  0  0
  9 10  1  0  0  0
 10 37  1  0  0  0
 11 12  2  0  0  0
 11 16  1  0  0  0
 12 13  1  0  0  0
 12 23  1  0  0  0
 13 14  2  0  0  0
 14 15  1  0  0  0
 15 16  2  0  0  0
 17 18  2  0  0  0
 17 22  1  0  0  0
 17 23  1  0  0  0
 18 19  1  0  0  0
 19 20  2  0  0  0
 20 21  1  0  0  0
 21 22  2  0  0  0
 23 24  2  0  0  0
 25 26  1  0  0  0
 25 29  1  0  0  0
 26 27  2  0  0  0
 26 31  1  0  0  0
 27 28  1  0  0  0
 28 29  2  0  0  0
 28 38  1  0  0  0
 29 30  1  0  0  0
 31 32  2  0  0  0
 31 36  1  0  0  0
 32 33  1  0  0  0
 33 34  2  0  0  0
 34 35  1  0  0  0
 35 36  2  0  0  0
 37 38  1  0  0  0
 39 41  2  0  0  0
 40 41  1  0  0  0
 40 43  1  0  0  0
M  END
>  <CHROM.0>
-58.58289213,-58.18136364,6.39917611,177.34481256,-75.47327143

>  <CHROM.1>
152.54680512,151.09322210,50.82771585,-14.30220990,-133.22397054,-127.08665642
114.72741285,-100.05348530,-170.01818454,-3.74900108,57.43611723,-27.43491127
6.96338080,48.47056319,-38.52983937,16.25370541,-1.01327353,-1.35815231,-2.63124164

>  <FORMUL>
      570    C34 H30 N2 O5

>  <HET>
 570  D 200      41

>  <HETNAM>
     570 2-(2-BENZOYL-PHENYLAMINO)-3-{4-[2-(5-METHYL-2-PHENYL-OX
   2 570 AZOL-4-YL)-ETHOXY]-PHENYL}-PROPIONIC ACID

>  <HETSYN>
     570 GI262570

>  <Name>
570.pdb

>  <RI>
3.3434e+07

>  <Rbt.Current_Directory>
/home/malgorzata/Desktop/rDOCK_IFD/Wyniki/14_ppar-gamma/IFD

>  <Rbt.Executable>
rbdock ($Id: //depot/dev/client3/rdock/2013.1/src/exe/rbdock.cxx#4 $)

>  <Rbt.Library>
libRbt.so (2013.1, Build901 2013/11/27)

>  <Rbt.Parameter_File>
/home/malgorzata/Desktop/rDock_2013.1_src/data/scripts/dock.prm

>  <Rbt.Receptor>
cavity.prm

>  <SCORE>
-6.49588

>  <SCORE.INTER>
-10.7771

>  <SCORE.INTER.CONST>
1

>  <SCORE.INTER.POLAR>
-0.85638

>  <SCORE.INTER.REPUL>
0.375942

>  <SCORE.INTER.ROT>
12

>  <SCORE.INTER.VDW>
-27.1451

>  <SCORE.INTER.norm>
-0.262855

>  <SCORE.INTRA>
10.1024

>  <SCORE.INTRA.DIHEDRAL>
20.9953

>  <SCORE.INTRA.DIHEDRAL.0>
12.9748

>  <SCORE.INTRA.POLAR>
0.058673

>  <SCORE.INTRA.POLAR.0>
-0.058673

>  <SCORE.INTRA.REPUL>
0

>  <SCORE.INTRA.REPUL.0>
0

>  <SCORE.INTRA.VDW>
-0.594776

>  <SCORE.INTRA.VDW.0>
-4.98062

>  <SCORE.INTRA.norm>
0.246399

>  <SCORE.RESTR>
0.0726126

>  <SCORE.RESTR.CAVITY>
0.0726126

>  <SCORE.RESTR.norm>
0.00177104

>  <SCORE.SYSTEM>
-5.89379

>  <SCORE.SYSTEM.CONST>
0

>  <SCORE.SYSTEM.DIHEDRAL>
0.64538

>  <SCORE.SYSTEM.POLAR>
-1.77046

>  <SCORE.SYSTEM.REPUL>
0.0760819

>  <SCORE.SYSTEM.VDW>
-0.577315

>  <SCORE.SYSTEM.norm>
-0.143751

>  <SCORE.heavy>
41

>  <SCORE.norm>
-0.158436

$$$$
570.pdb
  rDOCK(R)          3D
libRbt.so/2013.1/901 2013/11/27
 43 47  0  0  0  0  0  0  0  0999 V2000
   48.2154  -35.8206   20.5253 N   0  0  0  0  0  0
   47.2758  -36.7992   19.8617 C   0  0  0  0  0  0
   46.4494  -37.6426   20.8823 C   0  0  0  0  0  0
   45.6484  -38.7889   20.2547 C   0  0  0  0  0  0
   46.3364  -40.0026   19.9248 C   0  0  0  0  0  0
   44.2433  -38.6668   19.9955 C   0  0  0  0  0  0
   45.6420  -41.0824   19.3472 C   0  0  0  0  0  0
   43.5368  -39.7448   19.4157 C   0  0  0  0  0  0
   44.2394  -40.9886   19.0778 C   0  0  0  0  0  0
   43.6571  -42.1538   18.4931 O   0  0  0  0  0  0
   49.1001  -34.7779   20.0120 C   0  0  0  0  0  0
   50.4636  -34.6198   20.5304 C   0  0  0  0  0  0
   51.2657  -33.5625   19.9610 C   0  0  0  0  0  0
   50.7620  -32.7119   18.9491 C   0  0  0  0  0  0
   49.4516  -32.8776   18.4652 C   0  0  0  0  0  0
   48.6343  -33.8861   18.9800 C   0  0  0  0  0  0
   52.6241  -35.7545   21.9462 C   0  0  0  0  0  0
   53.6338  -34.9663   21.2751 C   0  0  0  0  0  0
   55.0170  -35.1873   21.5358 C   0  0  0  0  0  0
   55.4076  -36.1945   22.4667 C   0  0  0  0  0  0
   54.4200  -36.9763   23.1314 C   0  0  0  0  0  0
   53.0439  -36.7588   22.8741 C   0  0  0  0  0  0
   51.1528  -35.5008   21.6561 C   0  0  0  0  0  0
   50.3941  -36.1476   22.4072 O   0  0  0  0  0  0
   49.0598  -43.3851   17.1261 O   0  0  0  0  0  0
   48.4232  -42.8870   15.9948 C   0  0  0  0  0  0
   47.0414  -42.9449   16.2928 N   0  0  0  0  0  0
   46.9187  -43.4730   17.5601 C   0  0  0  0  0  0
   48.2044  -43.7774   18.1332 C   0  0  0  0  0  0
   48.5446  -44.3777   19.5033 C   0  0  0  0  0  0
   48.9908  -42.4270   14.8069 C   0  0  0  0  0  0
   50.4148  -42.4469   14.5703 C   0  0  0  0  0  0
   50.9394  -41.9618   13.3442 C   0  0  0  0  0  0
   50.0661  -41.4542   12.3472 C   0  0  0  0  0  0
   48.6616  -41.4294   12.5650 C   0  0  0  0  0  0
   48.1255  -41.9099   13.7858 C   0  0  0  0  0  0
   44.3836  -42.9159   17.4990 C   0  0  0  0  0  0
   45.5104  -43.6859   18.2140 C   0  0  0  0  0  0
   46.1360  -36.7026   17.8013 O   0  0  0  0  0  0
   45.9274  -34.9451   19.1553 O   0  0  0  0  0  0
   46.3659  -36.1101   18.8836 C   0  0  0  0  0  0
   48.2358  -35.9024   21.5062 H   0  0  0  0  0  0
   45.2753  -34.5509   18.6100 H   0  0  0  0  0  0
  1  2  1  0  0  0
  1 11  1  0  0  0
  1 42  1  0  0  0
  2  3  1  0  0  0
  2 41  1  0  0  0
  3  4  1  0  0  0
  4  5  2  0  0  0
  4  6  1  0  0  0
  5  7  1  0  0  0
  6  8  2  0  0  0
  7  9  2  0  0  0
  8  9  1  0  0  0
  9 10  1  0  0  0
 10 37  1  0  0  0
 11 12  2  0  0  0
 11 16  1  0  0  0
 12 13  1  0  0  0
 12 23  1  0  0  0
 13 14  2  0  0  0
 14 15  1  0  0  0
 15 16  2  0  0  0
 17 18  2  0  0  0
 17 22  1  0  0  0
 17 23  1  0  0  0
 18 19  1  0  0  0
 19 20  2  0  0  0
 20 21  1  0  0  0
 21 22  2  0  0  0
 23 24  2  0  0  0
 25 26  1  0  0  0
 25 29  1  0  0  0
 26 27  2  0  0  0
 26 31  1  0  0  0
 27 28  1  0  0  0
 28 29  2  0  0  0
 28 38  1  0  0  0
 29 30  1  0  0  0
 31 32  2  0  0  0
 31 36  1  0  0  0
 32 33  1  0  0  0
 33 34  2  0  0  0
 34 35  1  0  0  0
 35 36  2  0  0  0
 37 38  1  0  0  0
 39 41  2  0  0  0
 40 41  1  0  0  0
 40 43  1  0  0  0
M  END
>  <CHROM.0>
-170.68709519,-174.93319882,-167.09877175,-169.76015093,-60.10819470

>  <CHROM.1>
-174.99155471,-136.12695048,-171.07607656,139.72955888,79.63996287,-38.55742876
73.11794541,156.86264337,10.62728496,1.93858841,-15.82153570,-128.44101110
-172.14029896,48.57509028,-38.76001712,18.77801563,1.08466929,0.12353723
0.60823235

>  <FORMUL>
      570    C34 H30 N2 O5

>  <HET>
 570  D 200      41

>  <HETNAM>
     570 2-(2-BENZOYL-PHENYLAMINO)-3-{4-[2-(5-METHYL-2-PHENYL-OX
   2 570 AZOL-4-YL)-ETHOXY]-PHENYL}-PROPIONIC ACID

>  <HETSYN>
     570 GI262570

>  <Name>
570.pdb

>  <RI>
3.3434e+07

>  <Rbt.Current_Directory>
/home/malgorzata/Desktop/rDOCK_IFD/Wyniki/14_ppar-gamma/IFD

>  <Rbt.Executable>
rbdock ($Id: //depot/dev/client3/rdock/2013.1/src/exe/rbdock.cxx#4 $)

>  <Rbt.Library>
libRbt.so (2013.1, Build901 2013/11/27)

>  <Rbt.Parameter_File>
/home/malgorzata/Desktop/rDock_2013.1_src/data/scripts/dock.prm

>  <Rbt.Receptor>
cavity.prm

>  <SCORE>
-9.65669

>  <SCORE.INTER>
-11.2343

>  <SCORE.INTER.CONST>
1

>  <SCORE.INTER.POLAR>
0

>  <SCORE.INTER.REPUL>
0.000797983

>  <SCORE.INTER.ROT>
12

>  <SCORE.INTER.VDW>
-28.6383

>  <SCORE.INTER.norm>
-0.274008

>  <SCORE.INTRA>
8.59098

>  <SCORE.INTRA.DIHEDRAL>
11.0854

>  <SCORE.INTRA.DIHEDRAL.0>
12.9748

>  <SCORE.INTRA.POLAR>
0.0507571

>  <SCORE.INTRA.POLAR.0>
-0.058673

>  <SCORE.INTRA.REPUL>
0

>  <SCORE.INTRA.REPUL.0>
0

>  <SCORE.INTRA.VDW>
2.87573

>  <SCORE.INTRA.VDW.0>
-4.98062

>  <SCORE.INTRA.norm>
0.209536

>  <SCORE.RESTR>
0

>  <SCORE.RESTR.CAVITY>
0

>  <SCORE.RESTR.norm>
0

>  <SCORE.SYSTEM>
-7.01333

>  <SCORE.SYSTEM.CONST>
0

>  <SCORE.SYSTEM.DIHEDRAL>
0.929547

>  <SCORE.SYSTEM.POLAR>
-1.77046

>  <SCORE.SYSTEM.VDW>
-1.45853

>  <SCORE.SYSTEM.norm>
-0.171057

>  <SCORE.heavy>
41

>  <SCORE.norm>
-0.235529

$$$$
570.pdb
  rDOCK(R)          3D
libRbt.so/2013.1/901 2013/11/27
 43 47  0  0  0  0  0  0  0  0999 V2000
   47.1338  -37.4080   17.0101 N   0  0  0  0  0  0
   46.6059  -38.5677   17.8208 C   0  0  0  0  0  0
   47.6079  -39.7614   17.9059 C   0  0  0  0  0  0
   47.8764  -40.4592   16.5678 C   0  0  0  0  0  0
   46.7656  -41.0154   15.8523 C   0  0  0  0  0  0
   49.2017  -40.5635   16.0301 C   0  0  0  0  0  0
   46.9639  -41.6652   14.6192 C   0  0  0  0  0  0
   49.4117  -41.2140   14.7930 C   0  0  0  0  0  0
   48.2755  -41.7836   14.0586 C   0  0  0  0  0  0
   48.3375  -42.4626   12.8042 O   0  0  0  0  0  0
   46.9348  -36.9811   15.6274 C   0  0  0  0  0  0
   47.2625  -35.6154   15.2027 C   0  0  0  0  0  0
   47.0343  -35.2849   13.8157 C   0  0  0  0  0  0
   46.5150  -36.2327   12.9028 C   0  0  0  0  0  0
   46.2054  -37.5372   13.3284 C   0  0  0  0  0  0
   46.4091  -37.9097   14.6587 C   0  0  0  0  0  0
   48.8844  -34.5127   17.2309 C   0  0  0  0  0  0
   48.8825  -33.4976   18.2608 C   0  0  0  0  0  0
   49.8413  -33.5325   19.3142 C   0  0  0  0  0  0
   50.8103  -34.5781   19.3520 C   0  0  0  0  0  0
   50.8203  -35.5814   18.3413 C   0  0  0  0  0  0
   49.8681  -35.5491   17.2927 C   0  0  0  0  0  0
   47.8504  -34.4589   16.1167 C   0  0  0  0  0  0
   47.3682  -33.3183   15.9603 O   0  0  0  0  0  0
   49.1159  -44.5211   16.6515 O   0  0  0  0  0  0
   47.8095  -44.5507   16.1765 C   0  0  0  0  0  0
   47.9279  -44.5161   14.7670 N   0  0  0  0  0  0
   49.2731  -44.4595   14.4716 C   0  0  0  0  0  0
   50.0775  -44.4551   15.6662 C   0  0  0  0  0  0
   51.6032  -44.3956   15.8150 C   0  0  0  0  0  0
   46.6193  -44.5988   16.9018 C   0  0  0  0  0  0
   46.5910  -44.5884   18.3451 C   0  0  0  0  0  0
   45.3510  -44.6438   19.0331 C   0  0  0  0  0  0
   44.1349  -44.7111   18.3045 C   0  0  0  0  0  0
   44.1466  -44.7207   16.8831 C   0  0  0  0  0  0
   45.3786  -44.6670   16.1845 C   0  0  0  0  0  0
   49.5884  -43.0202   12.3338 C   0  0  0  0  0  0
   49.7728  -44.4034   12.9872 C   0  0  0  0  0  0
   45.1024  -38.5897   19.6353 O   0  0  0  0  0  0
   46.8917  -37.2745   19.8209 O   0  0  0  0  0  0
   46.1845  -38.1302   19.1957 C   0  0  0  0  0  0
   47.7362  -36.8181   17.5184 H   0  0  0  0  0  0
   47.7013  -36.9779   19.4540 H   0  0  0  0  0  0
  1  2  1  0  0  0
  1 11  1  0  0  0
  1 42  1  0  0  0
  2  3  1  0  0  0
  2 41  1  0  0  0
  3  4  1  0  0  0
  4  5  2  0  0  0
  4  6  1  0  0  0
  5  7  1  0  0  0
  6  8  2  0  0  0
  7  9  2  0  0  0
  8  9  1  0  0  0
  9 10  1  0  0  0
 10 37  1  0  0  0
 11 12  2  0  0  0
 11 16  1  0  0  0
 12 13  1  0  0  0
 12 23  1  0  0  0
 13 14  2  0  0  0
 14 15  1  0  0  0
 15 16  2  0  0  0
 17 18  2  0  0  0
 17 22  1  0  0  0
 17 23  1  0  0  0
 18 19  1  0  0  0
 19 20  2  0  0  0
 20 21  1  0  0  0
 21 22  2  0  0  0
 23 24  2  0  0  0
 25 26  1  0  0  0
 25 29  1  0  0  0
 26 27  2  0  0  0
 26 31  1  0  0  0
 27 28  1  0  0  0
 28 29  2  0  0  0
 28 38  1  0  0  0
 29 30  1  0  0  0
 31 32  2  0  0  0
 31 36  1  0  0  0
 32 33  1  0  0  0
 33 34  2  0  0  0
 34 35  1  0  0  0
 35 36  2  0  0  0
 37 38  1  0  0  0
 39 41  2  0  0  0
 40 41  1  0  0  0
 40 43  1  0  0  0
M  END
>  <CHROM.0>
57.04857480,-53.97155567,4.16583996,1.78929308,68.46802736

>  <CHROM.1>
98.05595385,162.39068746,-65.88770595,136.79199074,-57.96053600,-160.47221661
83.13681569,38.67124496,-155.08983043,1.76758311,75.80177072,-37.49860343
-5.01519647,47.77261269,-39.89903268,16.31035228,1.45868768,1.05106089,0.25417419

>  <FORMUL>
      570    C34 H30 N2 O5

>  <HET>
 570  D 200      41

>  <HETNAM>
     570 2-(2-BENZOYL-PHENYLAMINO)-3-{4-[2-(5-METHYL-2-PHENYL-OX
   2 570 AZOL-4-YL)-ETHOXY]-PHENYL}-PROPIONIC ACID

>  <HETSYN>
     570 GI262570

>  <Name>
570.pdb

>  <RI>
3.3434e+07

>  <Rbt.Current_Directory>
/home/malgorzata/Desktop/rDOCK_IFD/Wyniki/14_ppar-gamma/IFD

>  <Rbt.Executable>
rbdock ($Id: //depot/dev/client3/rdock/2013.1/src/exe/rbdock.cxx#4 $)

>  <Rbt.Library>
libRbt.so (2013.1, Build901 2013/11/27)

>  <Rbt.Parameter_File>
/home/malgorzata/Desktop/rDock_2013.1_src/data/scripts/dock.prm

>  <Rbt.Receptor>
cavity.prm

>  <SCORE>
-15.7311

>  <SCORE.INTER>
-9.15943

>  <SCORE.INTER.CONST>
1

>  <SCORE.INTER.POLAR>
0

>  <SCORE.INTER.REPUL>
0.208655

>  <SCORE.INTER.ROT>
12

>  <SCORE.INTER.VDW>
-27.6027

>  <SCORE.INTER.norm>
-0.223401

>  <SCORE.INTRA>
0.00475045

>  <SCORE.INTRA.DIHEDRAL>
5.4095

>  <SCORE.INTRA.DIHEDRAL.0>
12.9748

>  <SCORE.INTRA.POLAR>
0.058673

>  <SCORE.INTRA.POLAR.0>
-0.058673

>  <SCORE.INTRA.REPUL>
0

>  <SCORE.INTRA.REPUL.0>
0

>  <SCORE.INTRA.VDW>
-2.89949

>  <SCORE.INTRA.VDW.0>
-4.98062

>  <SCORE.INTRA.norm>
0.000115865

>  <SCORE.RESTR>
0

>  <SCORE.RESTR.CAVITY>
0

>  <SCORE.RESTR.norm>
0

>  <SCORE.SYSTEM>
-6.57643

>  <SCORE.SYSTEM.CONST>
0

>  <SCORE.SYSTEM.DIHEDRAL>
0.422439

>  <SCORE.SYSTEM.POLAR>
-1.78876

>  <SCORE.SYSTEM.REPUL>
0.03216

>  <SCORE.SYSTEM.VDW>
-0.866651

>  <SCORE.SYSTEM.norm>
-0.160401

>  <SCORE.heavy>
41

>  <SCORE.norm>
-0.383686

$$$$
