REMARK  9 active torsions:
REMARK  status: ('A' for Active; 'I' for Inactive)
REMARK    1  A    between atoms: C3_3  and  O3_4 
REMARK    2  A    between atoms: C7_9  and  C8_10 
REMARK    3  A    between atoms: C11_13  and  O11_14 
REMARK    4  A    between atoms: C15_19  and  C16_20 
REMARK    5  A    between atoms: C16_20  and  C17_22 
REMARK    6  A    between atoms: C20_25  and  O23_28 
REMARK    7  A    between atoms: O23_28  and  C24_29 
REMARK    8  A    between atoms: C24_29  and  C25_30 
REMARK    9  A    between atoms: C25_30  and  N26_31 
ROOT
HETATM    1  C1  RAL A 600      28.605  -1.903  26.474  1.00 31.33     0.016 A 
HETATM    2  C2  RAL A 600      27.261  -1.660  26.589  1.00 30.47     0.037 A 
HETATM    3  C3  RAL A 600      26.766  -0.569  27.246  1.00 31.66     0.067 A 
HETATM    4  C4  RAL A 600      27.656   0.351  27.813  1.00 33.99     0.056 A 
HETATM    5  C5  RAL A 600      29.002   0.122  27.666  1.00 33.49     0.019 A 
HETATM    6  S6  RAL A 600      30.285   0.982  28.254  1.00 33.96    -0.088 SA
HETATM    7  C7  RAL A 600      31.522   0.026  27.620  1.00 34.48     0.031 A 
HETATM    8  C14 RAL A 600      29.489  -1.033  26.990  1.00 31.87    -0.003 A 
HETATM    9  C15 RAL A 600      30.942  -1.097  26.991  1.00 33.10     0.044 A 
ENDROOT
BRANCH   9  10
HETATM   10  C16 RAL A 600      31.638  -2.147  26.424  1.00 36.94     0.194 C 
HETATM   11  O16 RAL A 600      32.094  -3.037  27.153  1.00 40.67    -0.287 OA
BRANCH  10  12
HETATM   12  C17 RAL A 600      31.879  -2.253  24.980  1.00 36.96     0.015 A 
HETATM   13  C18 RAL A 600      31.638  -1.180  24.146  1.00 34.73     0.018 A 
HETATM   14  C19 RAL A 600      31.840  -1.251  22.782  1.00 34.67     0.037 A 
HETATM   15  C20 RAL A 600      32.273  -2.457  22.231  1.00 37.20     0.068 A 
HETATM   16  C21 RAL A 600      32.525  -3.536  23.058  1.00 40.93     0.037 A 
HETATM   17  C22 RAL A 600      32.340  -3.429  24.426  1.00 39.84     0.018 A 
BRANCH  15  18
HETATM   18  O23 RAL A 600      32.526  -2.765  20.927  1.00 36.45    -0.349 OA
BRANCH  18  19
HETATM   19  C24 RAL A 600      33.797  -2.387  20.421  1.00 38.03     0.206 C 
BRANCH  19  20
HETATM   20  C25 RAL A 600      34.014  -2.978  19.054  1.00 43.08     0.299 C 
BRANCH  20  21
HETATM   21  N26 RAL A 600      33.180  -3.908  18.317  1.00 46.61     0.090 N 
HETATM   22  C27 RAL A 600      31.943  -3.214  17.904  1.00 47.65     0.272 C 
HETATM   23  C28 RAL A 600      31.037  -4.054  16.981  1.00 48.95     0.030 C 
HETATM   24  C29 RAL A 600      30.609  -5.291  17.786  1.00 50.06     0.003 C 
HETATM   25  C30 RAL A 600      31.944  -6.061  18.026  1.00 50.91     0.030 C 
HETATM   26  C31 RAL A 600      32.806  -5.186  18.952  1.00 50.67     0.272 C 
ENDBRANCH  20  21
ENDBRANCH  19  20
ENDBRANCH  18  19
ENDBRANCH  15  18
ENDBRANCH  10  12
ENDBRANCH   9  10
BRANCH   7  27
HETATM   27  C8  RAL A 600      32.969   0.258  27.893  1.00 35.62    -0.018 A 
HETATM   28  C9  RAL A 600      33.516  -0.531  28.886  1.00 35.20     0.015 A 
HETATM   29  C10 RAL A 600      34.875  -0.429  29.133  1.00 38.32     0.037 A 
HETATM   30  C11 RAL A 600      35.669   0.463  28.440  1.00 39.44     0.065 A 
HETATM   31  C12 RAL A 600      35.131   1.217  27.418  1.00 36.17     0.037 A 
HETATM   32  C13 RAL A 600      33.770   1.096  27.166  1.00 34.51     0.015 A 
BRANCH  30  33
HETATM   33  O11 RAL A 600      37.029   0.491  28.756  1.00 46.17    -0.361 OA
ATOM     34  H11 RAL A 600      37.368  -0.219  29.288  1.00  0.00     0.217 HD
ENDBRANCH  30  33
ENDBRANCH   7  27
BRANCH   3  35
HETATM   35  O3  RAL A 600      25.401  -0.424  27.263  1.00 32.81    -0.361 OA
ATOM     36  H3  RAL A 600      25.043   0.313  26.783  1.00  0.00     0.217 HD
ENDBRANCH   3  35
TORSDOF 9
