REMARK  9 active torsions:
REMARK  status: ('A' for Active; 'I' for Inactive)
REMARK    1  A    between atoms: C3_3  and  O3_4 
REMARK    2  A    between atoms: C7_9  and  C8_10 
REMARK    3  A    between atoms: C11_13  and  O11_14 
REMARK    4  A    between atoms: C15_19  and  C16_20 
REMARK    5  A    between atoms: C16_20  and  C17_22 
REMARK    6  A    between atoms: C20_25  and  O23_28 
REMARK    7  A    between atoms: O23_28  and  C24_29 
REMARK    8  A    between atoms: C24_29  and  C25_30 
REMARK    9  A    between atoms: C25_30  and  N26_31 
ROOT
HETATM    1  C1  RAL A 600      28.300  -1.979  26.317  1.00 31.33     0.016 A 
HETATM    2  C2  RAL A 600      26.955  -1.769  26.482  1.00 30.47     0.037 A 
HETATM    3  C3  RAL A 600      26.453  -0.623  27.032  1.00 31.66     0.067 A 
HETATM    4  C4  RAL A 600      27.335   0.389  27.428  1.00 33.99     0.056 A 
HETATM    5  C5  RAL A 600      28.679   0.190  27.230  1.00 33.49     0.019 A 
HETATM    6  S6  RAL A 600      29.956   1.159  27.631  1.00 33.96    -0.088 SA
HETATM    7  C7  RAL A 600      31.195   0.174  27.043  1.00 34.48     0.031 A 
HETATM    8  C14 RAL A 600      29.175  -1.022  26.670  1.00 31.87    -0.003 A 
HETATM    9  C15 RAL A 600      30.627  -1.036  26.591  1.00 33.10     0.044 A 
ENDROOT
BRANCH   9  10
HETATM   10  C16 RAL A 600      31.332  -2.125  26.114  1.00 36.94     0.194 C 
HETATM   11  O16 RAL A 600      31.598  -3.059  26.880  1.00 40.67    -0.287 OA
BRANCH  10  12
HETATM   12  C17 RAL A 600      31.802  -2.221  24.727  1.00 36.96     0.015 A 
HETATM   13  C18 RAL A 600      31.154  -1.539  23.716  1.00 34.73     0.018 A 
HETATM   14  C19 RAL A 600      31.561  -1.620  22.398  1.00 34.67     0.037 A 
HETATM   15  C20 RAL A 600      32.642  -2.441  22.081  1.00 37.20     0.068 A 
HETATM   16  C21 RAL A 600      33.303  -3.123  23.087  1.00 40.93     0.037 A 
HETATM   17  C22 RAL A 600      32.891  -3.002  24.403  1.00 39.84     0.018 A 
BRANCH  15  18
HETATM   18  O23 RAL A 600      33.208  -2.686  20.865  1.00 36.45    -0.349 OA
BRANCH  18  19
HETATM   19  C24 RAL A 600      33.696  -4.000  20.644  1.00 38.03     0.206 C 
BRANCH  19  20
HETATM   20  C25 RAL A 600      32.937  -4.659  19.524  1.00 43.08     0.299 C 
BRANCH  20  21
HETATM   21  N26 RAL A 600      31.670  -4.278  18.928  1.00 46.61     0.090 N 
HETATM   22  C27 RAL A 600      31.892  -3.119  18.040  1.00 47.65     0.272 C 
HETATM   23  C28 RAL A 600      30.646  -2.711  17.228  1.00 48.95     0.030 C 
HETATM   24  C29 RAL A 600      29.570  -2.297  18.246  1.00 50.06     0.003 C 
HETATM   25  C30 RAL A 600      29.262  -3.615  19.022  1.00 50.91     0.030 C 
HETATM   26  C31 RAL A 600      30.530  -3.974  19.815  1.00 50.67     0.272 C 
ENDBRANCH  20  21
ENDBRANCH  19  20
ENDBRANCH  18  19
ENDBRANCH  15  18
ENDBRANCH  10  12
ENDBRANCH   9  10
BRANCH   7  27
HETATM   27  C8  RAL A 600      32.644   0.487  27.199  1.00 35.62    -0.018 A 
HETATM   28  C9  RAL A 600      33.244   1.062  26.096  1.00 35.20     0.015 A 
HETATM   29  C10 RAL A 600      34.567   1.459  26.200  1.00 38.32     0.037 A 
HETATM   30  C11 RAL A 600      35.292   1.255  27.358  1.00 39.44     0.065 A 
HETATM   31  C12 RAL A 600      34.678   0.722  28.472  1.00 36.17     0.037 A 
HETATM   32  C13 RAL A 600      33.346   0.343  28.363  1.00 34.51     0.015 A 
BRANCH  30  33
HETATM   33  O11 RAL A 600      36.618   1.692  27.370  1.00 46.17    -0.361 OA
ATOM     34  H11 RAL A 600      36.946   2.114  26.584  1.00  0.00     0.217 HD
ENDBRANCH  30  33
ENDBRANCH   7  27
BRANCH   3  35
HETATM   35  O3  RAL A 600      25.087  -0.524  27.114  1.00 32.81    -0.361 OA
ATOM     36  H3  RAL A 600      24.708   0.328  26.930  1.00  0.00     0.217 HD
ENDBRANCH   3  35
TORSDOF 9
