REMARK  9 active torsions:
REMARK  status: ('A' for Active; 'I' for Inactive)
REMARK    1  A    between atoms: C3_3  and  O3_4 
REMARK    2  A    between atoms: C7_9  and  C8_10 
REMARK    3  A    between atoms: C11_13  and  O11_14 
REMARK    4  A    between atoms: C15_19  and  C16_20 
REMARK    5  A    between atoms: C16_20  and  C17_22 
REMARK    6  A    between atoms: C20_25  and  O23_28 
REMARK    7  A    between atoms: O23_28  and  C24_29 
REMARK    8  A    between atoms: C24_29  and  C25_30 
REMARK    9  A    between atoms: C25_30  and  N26_31 
ROOT
HETATM    1  C1  RAL A 600      28.654  -2.126  26.097  1.00 31.33     0.016 A 
HETATM    2  C2  RAL A 600      27.302  -1.910  26.172  1.00 30.47     0.037 A 
HETATM    3  C3  RAL A 600      26.769  -0.785  26.737  1.00 31.66     0.067 A 
HETATM    4  C4  RAL A 600      27.626   0.199  27.244  1.00 33.99     0.056 A 
HETATM    5  C5  RAL A 600      28.980  -0.006  27.135  1.00 33.49     0.019 A 
HETATM    6  S6  RAL A 600      30.231   0.930  27.674  1.00 33.96    -0.088 SA
HETATM    7  C7  RAL A 600      31.503  -0.039  27.133  1.00 34.48     0.031 A 
HETATM    8  C14 RAL A 600      29.507  -1.195  26.557  1.00 31.87    -0.003 A 
HETATM    9  C15 RAL A 600      30.961  -1.221  26.584  1.00 33.10     0.044 A 
ENDROOT
BRANCH   9  10
HETATM   10  C16 RAL A 600      31.693  -2.293  26.109  1.00 36.94     0.194 C 
HETATM   11  O16 RAL A 600      32.015  -3.199  26.887  1.00 40.67    -0.287 OA
BRANCH  10  12
HETATM   12  C17 RAL A 600      32.123  -2.404  24.711  1.00 36.96     0.015 A 
HETATM   13  C18 RAL A 600      33.250  -3.129  24.377  1.00 34.73     0.018 A 
HETATM   14  C19 RAL A 600      33.691  -3.240  23.073  1.00 34.67     0.037 A 
HETATM   15  C20 RAL A 600      32.989  -2.574  22.070  1.00 37.20     0.068 A 
HETATM   16  C21 RAL A 600      31.855  -1.851  22.392  1.00 40.93     0.037 A 
HETATM   17  C22 RAL A 600      31.419  -1.778  23.704  1.00 39.84     0.018 A 
BRANCH  15  18
HETATM   18  O23 RAL A 600      33.239  -2.529  20.730  1.00 36.45    -0.349 OA
BRANCH  18  19
HETATM   19  C24 RAL A 600      33.981  -3.610  20.186  1.00 38.03     0.206 C 
BRANCH  19  20
HETATM   20  C25 RAL A 600      33.233  -4.232  19.037  1.00 43.08     0.299 C 
BRANCH  20  21
HETATM   21  N26 RAL A 600      31.855  -4.036  18.629  1.00 46.61     0.090 N 
HETATM   22  C27 RAL A 600      31.704  -2.663  18.107  1.00 47.65     0.272 C 
HETATM   23  C28 RAL A 600      30.316  -2.379  17.499  1.00 48.95     0.030 C 
HETATM   24  C29 RAL A 600      29.293  -2.541  18.635  1.00 50.06     0.003 C 
HETATM   25  C30 RAL A 600      29.384  -4.053  19.007  1.00 50.91     0.030 C 
HETATM   26  C31 RAL A 600      30.781  -4.282  19.611  1.00 50.67     0.272 C 
ENDBRANCH  20  21
ENDBRANCH  19  20
ENDBRANCH  18  19
ENDBRANCH  15  18
ENDBRANCH  10  12
ENDBRANCH   9  10
BRANCH   7  27
HETATM   27  C8  RAL A 600      32.938   0.251  27.409  1.00 35.62    -0.018 A 
HETATM   28  C9  RAL A 600      33.436  -0.292  28.578  1.00 35.20     0.015 A 
HETATM   29  C10 RAL A 600      34.784  -0.135  28.854  1.00 38.32     0.037 A 
HETATM   30  C11 RAL A 600      35.614   0.579  28.012  1.00 39.44     0.065 A 
HETATM   31  C12 RAL A 600      35.126   1.081  26.823  1.00 36.17     0.037 A 
HETATM   32  C13 RAL A 600      33.776   0.904  26.547  1.00 34.51     0.015 A 
BRANCH  30  33
HETATM   33  O11 RAL A 600      36.959   0.680  28.371  1.00 46.17    -0.361 OA
ATOM     34  H11 RAL A 600      37.307   0.015  28.954  1.00  0.00     0.217 HD
ENDBRANCH  30  33
ENDBRANCH   7  27
BRANCH   3  35
HETATM   35  O3  RAL A 600      25.401  -0.675  26.723  1.00 32.81    -0.361 OA
ATOM     36  H3  RAL A 600      25.043   0.189  26.556  1.00  0.00     0.217 HD
ENDBRANCH   3  35
TORSDOF 9
