REMARK  9 active torsions:
REMARK  status: ('A' for Active; 'I' for Inactive)
REMARK    1  A    between atoms: C3_3  and  O3_4 
REMARK    2  A    between atoms: C7_9  and  C8_10 
REMARK    3  A    between atoms: C11_13  and  O11_14 
REMARK    4  A    between atoms: C15_19  and  C16_20 
REMARK    5  A    between atoms: C16_20  and  C17_22 
REMARK    6  A    between atoms: C20_25  and  O23_28 
REMARK    7  A    between atoms: O23_28  and  C24_29 
REMARK    8  A    between atoms: C24_29  and  C25_30 
REMARK    9  A    between atoms: C25_30  and  N26_31 
ROOT
HETATM    1  C1  RAL A 600      27.698  -0.793  26.100  1.00 31.33     0.016 A 
HETATM    2  C2  RAL A 600      26.418  -0.999  26.544  1.00 30.47     0.037 A 
HETATM    3  C3  RAL A 600      26.137  -1.342  27.837  1.00 31.66     0.067 A 
HETATM    4  C4  RAL A 600      27.185  -1.474  28.755  1.00 33.99     0.056 A 
HETATM    5  C5  RAL A 600      28.463  -1.233  28.314  1.00 33.49     0.019 A 
HETATM    6  S6  RAL A 600      29.896  -1.352  29.128  1.00 33.96    -0.088 SA
HETATM    7  C7  RAL A 600      30.923  -0.892  27.869  1.00 34.48     0.031 A 
HETATM    8  C14 RAL A 600      28.729  -0.893  26.956  1.00 31.87    -0.003 A 
HETATM    9  C15 RAL A 600      30.151  -0.725  26.701  1.00 33.10     0.044 A 
ENDROOT
BRANCH   9  10
HETATM   10  C16 RAL A 600      30.648  -0.428  25.446  1.00 36.94     0.194 C 
HETATM   11  O16 RAL A 600      30.379   0.665  24.931  1.00 40.67    -0.287 OA
BRANCH  10  12
HETATM   12  C17 RAL A 600      31.478  -1.363  24.678  1.00 36.96     0.015 A 
HETATM   13  C18 RAL A 600      31.963  -2.515  25.262  1.00 34.73     0.018 A 
HETATM   14  C19 RAL A 600      32.759  -3.409  24.571  1.00 34.67     0.037 A 
HETATM   15  C20 RAL A 600      33.104  -3.117  23.252  1.00 37.20     0.068 A 
HETATM   16  C21 RAL A 600      32.616  -1.969  22.655  1.00 40.93     0.037 A 
HETATM   17  C22 RAL A 600      31.798  -1.104  23.362  1.00 39.84     0.018 A 
BRANCH  15  18
HETATM   18  O23 RAL A 600      33.877  -3.834  22.387  1.00 36.45    -0.349 OA
BRANCH  18  19
HETATM   19  C24 RAL A 600      34.139  -3.236  21.127  1.00 38.03     0.206 C 
BRANCH  19  20
HETATM   20  C25 RAL A 600      33.619  -4.108  20.015  1.00 43.08     0.299 C 
BRANCH  20  21
HETATM   21  N26 RAL A 600      32.337  -4.061  19.339  1.00 46.61     0.090 N 
HETATM   22  C27 RAL A 600      32.357  -2.960  18.355  1.00 47.65     0.272 C 
HETATM   23  C28 RAL A 600      31.102  -2.900  17.462  1.00 48.95     0.030 C 
HETATM   24  C29 RAL A 600      29.906  -2.646  18.395  1.00 50.06     0.003 C 
HETATM   25  C30 RAL A 600      29.841  -3.930  19.278  1.00 50.91     0.030 C 
HETATM   26  C31 RAL A 600      31.109  -3.939  20.149  1.00 50.67     0.272 C 
ENDBRANCH  20  21
ENDBRANCH  19  20
ENDBRANCH  18  19
ENDBRANCH  15  18
ENDBRANCH  10  12
ENDBRANCH   9  10
BRANCH   7  27
HETATM   27  C8  RAL A 600      32.410  -0.890  27.975  1.00 35.62    -0.018 A 
HETATM   28  C9  RAL A 600      33.015   0.331  27.752  1.00 35.20     0.015 A 
HETATM   29  C10 RAL A 600      34.387   0.426  27.920  1.00 38.32     0.037 A 
HETATM   30  C11 RAL A 600      35.149  -0.674  28.261  1.00 39.44     0.065 A 
HETATM   31  C12 RAL A 600      34.538  -1.881  28.529  1.00 36.17     0.037 A 
HETATM   32  C13 RAL A 600      33.159  -1.962  28.374  1.00 34.51     0.015 A 
BRANCH  30  33
HETATM   33  O11 RAL A 600      36.523  -0.480  28.412  1.00 46.17    -0.361 OA
ATOM     34  H11 RAL A 600      36.929  -0.820  29.201  1.00  0.00     0.217 HD
ENDBRANCH  30  33
ENDBRANCH   7  27
BRANCH   3  35
HETATM   35  O3  RAL A 600      24.811  -1.491  28.163  1.00 32.81    -0.361 OA
ATOM     36  H3  RAL A 600      24.608  -2.102  28.861  1.00  0.00     0.217 HD
ENDBRANCH   3  35
TORSDOF 9
