REMARK  9 active torsions:
REMARK  status: ('A' for Active; 'I' for Inactive)
REMARK    1  A    between atoms: C3_3  and  O3_4 
REMARK    2  A    between atoms: C7_9  and  C8_10 
REMARK    3  A    between atoms: C11_13  and  O11_14 
REMARK    4  A    between atoms: C15_19  and  C16_20 
REMARK    5  A    between atoms: C16_20  and  C17_22 
REMARK    6  A    between atoms: C20_25  and  O23_28 
REMARK    7  A    between atoms: O23_28  and  C24_29 
REMARK    8  A    between atoms: C24_29  and  C25_30 
REMARK    9  A    between atoms: C25_30  and  N26_31 
ROOT
HETATM    1  C1  RAL A 600      33.915  -0.219  26.727  1.00 31.33     0.016 A 
HETATM    2  C2  RAL A 600      35.060  -0.085  27.469  1.00 30.47     0.037 A 
HETATM    3  C3  RAL A 600      35.063  -0.162  28.834  1.00 31.66     0.067 A 
HETATM    4  C4  RAL A 600      33.861  -0.404  29.508  1.00 33.99     0.056 A 
HETATM    5  C5  RAL A 600      32.722  -0.572  28.759  1.00 33.49     0.019 A 
HETATM    6  S6  RAL A 600      31.165  -0.817  29.255  1.00 33.96    -0.088 SA
HETATM    7  C7  RAL A 600      30.443  -0.909  27.732  1.00 34.48     0.031 A 
HETATM    8  C14 RAL A 600      32.746  -0.470  27.339  1.00 31.87    -0.003 A 
HETATM    9  C15 RAL A 600      31.425  -0.638  26.755  1.00 33.10     0.044 A 
ENDROOT
BRANCH   9  10
HETATM   10  C16 RAL A 600      31.198  -0.544  25.395  1.00 36.94     0.194 C 
HETATM   11  O16 RAL A 600      30.428   0.325  24.967  1.00 40.67    -0.287 OA
BRANCH  10  12
HETATM   12  C17 RAL A 600      31.825  -1.445  24.421  1.00 36.96     0.015 A 
HETATM   13  C18 RAL A 600      32.474  -2.590  24.838  1.00 34.73     0.018 A 
HETATM   14  C19 RAL A 600      33.086  -3.451  23.949  1.00 34.67     0.037 A 
HETATM   15  C20 RAL A 600      33.070  -3.135  22.592  1.00 37.20     0.068 A 
HETATM   16  C21 RAL A 600      32.416  -1.995  22.162  1.00 40.93     0.037 A 
HETATM   17  C22 RAL A 600      31.786  -1.163  23.072  1.00 39.84     0.018 A 
BRANCH  15  18
HETATM   18  O23 RAL A 600      33.611  -3.819  21.543  1.00 36.45    -0.349 OA
BRANCH  18  19
HETATM   19  C24 RAL A 600      32.988  -5.046  21.196  1.00 38.03     0.206 C 
BRANCH  19  20
HETATM   20  C25 RAL A 600      31.521  -4.832  20.931  1.00 43.08     0.299 C 
BRANCH  20  21
HETATM   21  N26 RAL A 600      30.872  -4.326  19.736  1.00 46.61     0.090 N 
HETATM   22  C27 RAL A 600      31.869  -4.248  18.650  1.00 47.65     0.272 C 
HETATM   23  C28 RAL A 600      31.269  -3.866  17.281  1.00 48.95     0.030 C 
HETATM   24  C29 RAL A 600      30.667  -2.460  17.439  1.00 50.06     0.003 C 
HETATM   25  C30 RAL A 600      29.508  -2.662  18.463  1.00 50.91     0.030 C 
HETATM   26  C31 RAL A 600      30.158  -3.036  19.807  1.00 50.67     0.272 C 
ENDBRANCH  20  21
ENDBRANCH  19  20
ENDBRANCH  18  19
ENDBRANCH  15  18
ENDBRANCH  10  12
ENDBRANCH   9  10
BRANCH   7  27
HETATM   27  C8  RAL A 600      28.974  -1.043  27.520  1.00 35.62    -0.018 A 
HETATM   28  C9  RAL A 600      28.573  -2.200  26.880  1.00 35.20     0.015 A 
HETATM   29  C10 RAL A 600      27.215  -2.430  26.729  1.00 38.32     0.037 A 
HETATM   30  C11 RAL A 600      26.276  -1.517  27.165  1.00 39.44     0.065 A 
HETATM   31  C12 RAL A 600      26.676  -0.385  27.844  1.00 36.17     0.037 A 
HETATM   32  C13 RAL A 600      28.039  -0.171  28.006  1.00 34.51     0.015 A 
BRANCH  30  33
HETATM   33  O11 RAL A 600      24.931  -1.838  26.972  1.00 46.17    -0.361 OA
ATOM     34  H11 RAL A 600      24.463  -1.369  26.291  1.00  0.00     0.217 HD
ENDBRANCH  30  33
ENDBRANCH   7  27
BRANCH   3  35
HETATM   35  O3  RAL A 600      36.280  -0.041  29.457  1.00 32.81    -0.361 OA
ATOM     36  H3  RAL A 600      36.657  -0.836  29.817  1.00  0.00     0.217 HD
ENDBRANCH   3  35
TORSDOF 9
