REMARK  9 active torsions:
REMARK  status: ('A' for Active; 'I' for Inactive)
REMARK    1  A    between atoms: C3_3  and  O3_4 
REMARK    2  A    between atoms: C7_9  and  C8_10 
REMARK    3  A    between atoms: C11_13  and  O11_14 
REMARK    4  A    between atoms: C15_19  and  C16_20 
REMARK    5  A    between atoms: C16_20  and  C17_22 
REMARK    6  A    between atoms: C20_25  and  O23_28 
REMARK    7  A    between atoms: O23_28  and  C24_29 
REMARK    8  A    between atoms: C24_29  and  C25_30 
REMARK    9  A    between atoms: C25_30  and  N26_31 
ROOT
HETATM    1  C1  RAL A 600      28.368  -2.272  26.204  1.00 31.33     0.016 A 
HETATM    2  C2  RAL A 600      27.013  -2.112  26.337  1.00 30.47     0.037 A 
HETATM    3  C3  RAL A 600      26.454  -0.971  26.842  1.00 31.66     0.067 A 
HETATM    4  C4  RAL A 600      27.286   0.087  27.225  1.00 33.99     0.056 A 
HETATM    5  C5  RAL A 600      28.641  -0.063  27.058  1.00 33.49     0.019 A 
HETATM    6  S6  RAL A 600      29.870   0.968  27.453  1.00 33.96    -0.088 SA
HETATM    7  C7  RAL A 600      31.159   0.018  26.919  1.00 34.48     0.031 A 
HETATM    8  C14 RAL A 600      29.196  -1.270  26.544  1.00 31.87    -0.003 A 
HETATM    9  C15 RAL A 600      30.649  -1.227  26.493  1.00 33.10     0.044 A 
ENDROOT
BRANCH   9  10
HETATM   10  C16 RAL A 600      31.407  -2.299  26.062  1.00 36.94     0.194 C 
HETATM   11  O16 RAL A 600      31.666  -3.216  26.853  1.00 40.67    -0.287 OA
BRANCH  10  12
HETATM   12  C17 RAL A 600      31.941  -2.398  24.699  1.00 36.96     0.015 A 
HETATM   13  C18 RAL A 600      32.999  -3.239  24.417  1.00 34.73     0.018 A 
HETATM   14  C19 RAL A 600      33.534  -3.344  23.148  1.00 34.67     0.037 A 
HETATM   15  C20 RAL A 600      33.004  -2.553  22.130  1.00 37.20     0.068 A 
HETATM   16  C21 RAL A 600      31.939  -1.713  22.400  1.00 40.93     0.037 A 
HETATM   17  C22 RAL A 600      31.404  -1.647  23.675  1.00 39.84     0.018 A 
BRANCH  15  18
HETATM   18  O23 RAL A 600      33.372  -2.478  20.819  1.00 36.45    -0.349 OA
BRANCH  18  19
HETATM   19  C24 RAL A 600      34.015  -3.620  20.274  1.00 38.03     0.206 C 
BRANCH  19  20
HETATM   20  C25 RAL A 600      33.007  -4.527  19.621  1.00 43.08     0.299 C 
BRANCH  20  21
HETATM   21  N26 RAL A 600      31.746  -4.189  18.989  1.00 46.61     0.090 N 
HETATM   22  C27 RAL A 600      31.926  -2.955  18.197  1.00 47.65     0.272 C 
HETATM   23  C28 RAL A 600      30.694  -2.573  17.353  1.00 48.95     0.030 C 
HETATM   24  C29 RAL A 600      29.546  -2.307  18.340  1.00 50.06     0.003 C 
HETATM   25  C30 RAL A 600      29.295  -3.696  19.005  1.00 50.91     0.030 C 
HETATM   26  C31 RAL A 600      30.547  -4.027  19.835  1.00 50.67     0.272 C 
ENDBRANCH  20  21
ENDBRANCH  19  20
ENDBRANCH  18  19
ENDBRANCH  15  18
ENDBRANCH  10  12
ENDBRANCH   9  10
BRANCH   7  27
HETATM   27  C8  RAL A 600      32.590   0.394  27.093  1.00 35.62    -0.018 A 
HETATM   28  C9  RAL A 600      33.176   1.006  26.001  1.00 35.20     0.015 A 
HETATM   29  C10 RAL A 600      34.479   1.461  26.123  1.00 38.32     0.037 A 
HETATM   30  C11 RAL A 600      35.200   1.279  27.286  1.00 39.44     0.065 A 
HETATM   31  C12 RAL A 600      34.599   0.710  28.390  1.00 36.17     0.037 A 
HETATM   32  C13 RAL A 600      33.287   0.271  28.263  1.00 34.51     0.015 A 
BRANCH  30  33
HETATM   33  O11 RAL A 600      36.505   1.775  27.316  1.00 46.17    -0.361 OA
ATOM     34  H11 RAL A 600      36.839   2.174  26.521  1.00  0.00     0.217 HD
ENDBRANCH  30  33
ENDBRANCH   7  27
BRANCH   3  35
HETATM   35  O3  RAL A 600      25.083  -0.925  26.896  1.00 32.81    -0.361 OA
ATOM     36  H3  RAL A 600      24.672  -0.111  26.630  1.00  0.00     0.217 HD
ENDBRANCH   3  35
TORSDOF 9
