REMARK  9 active torsions:
REMARK  status: ('A' for Active; 'I' for Inactive)
REMARK    1  A    between atoms: C3_3  and  O3_4 
REMARK    2  A    between atoms: C7_9  and  C8_10 
REMARK    3  A    between atoms: C11_13  and  O11_14 
REMARK    4  A    between atoms: C15_19  and  C16_20 
REMARK    5  A    between atoms: C16_20  and  C17_22 
REMARK    6  A    between atoms: C20_25  and  O23_28 
REMARK    7  A    between atoms: O23_28  and  C24_29 
REMARK    8  A    between atoms: C24_29  and  C25_30 
REMARK    9  A    between atoms: C25_30  and  N26_31 
ROOT
HETATM    1  C1  RAL A 600      33.943  -0.314  26.724  1.00 31.33     0.016 A 
HETATM    2  C2  RAL A 600      35.042  -0.152  27.528  1.00 30.47     0.037 A 
HETATM    3  C3  RAL A 600      34.959  -0.150  28.892  1.00 31.66     0.067 A 
HETATM    4  C4  RAL A 600      33.714  -0.337  29.503  1.00 33.99     0.056 A 
HETATM    5  C5  RAL A 600      32.621  -0.533  28.695  1.00 33.49     0.019 A 
HETATM    6  S6  RAL A 600      31.032  -0.729  29.105  1.00 33.96    -0.088 SA
HETATM    7  C7  RAL A 600      30.404  -0.900  27.548  1.00 34.48     0.031 A 
HETATM    8  C14 RAL A 600      32.734  -0.514  27.276  1.00 31.87    -0.003 A 
HETATM    9  C15 RAL A 600      31.448  -0.698  26.620  1.00 33.10     0.044 A 
ENDROOT
BRANCH   9  10
HETATM   10  C16 RAL A 600      31.308  -0.680  25.246  1.00 36.94     0.194 C 
HETATM   11  O16 RAL A 600      30.585   0.176  24.721  1.00 40.67    -0.287 OA
BRANCH  10  12
HETATM   12  C17 RAL A 600      31.972  -1.650  24.367  1.00 36.96     0.015 A 
HETATM   13  C18 RAL A 600      32.158  -1.373  23.028  1.00 34.73     0.018 A 
HETATM   14  C19 RAL A 600      32.765  -2.269  22.170  1.00 34.67     0.037 A 
HETATM   15  C20 RAL A 600      33.175  -3.503  22.672  1.00 37.20     0.068 A 
HETATM   16  C21 RAL A 600      33.001  -3.788  24.015  1.00 40.93     0.037 A 
HETATM   17  C22 RAL A 600      32.414  -2.860  24.858  1.00 39.84     0.018 A 
BRANCH  15  18
HETATM   18  O23 RAL A 600      33.779  -4.539  22.022  1.00 36.45    -0.349 OA
BRANCH  18  19
HETATM   19  C24 RAL A 600      33.263  -4.872  20.742  1.00 38.03     0.206 C 
BRANCH  19  20
HETATM   20  C25 RAL A 600      31.758  -4.854  20.764  1.00 43.08     0.299 C 
BRANCH  20  21
HETATM   21  N26 RAL A 600      30.835  -4.308  19.787  1.00 46.61     0.090 N 
HETATM   22  C27 RAL A 600      31.567  -4.059  18.528  1.00 47.65     0.272 C 
HETATM   23  C28 RAL A 600      30.663  -3.618  17.360  1.00 48.95     0.030 C 
HETATM   24  C29 RAL A 600      30.020  -2.285  17.776  1.00 50.06     0.003 C 
HETATM   25  C30 RAL A 600      29.125  -2.665  18.995  1.00 50.91     0.030 C 
HETATM   26  C31 RAL A 600      30.073  -3.092  20.130  1.00 50.67     0.272 C 
ENDBRANCH  20  21
ENDBRANCH  19  20
ENDBRANCH  18  19
ENDBRANCH  15  18
ENDBRANCH  10  12
ENDBRANCH   9  10
BRANCH   7  27
HETATM   27  C8  RAL A 600      28.949  -1.027  27.253  1.00 35.62    -0.018 A 
HETATM   28  C9  RAL A 600      28.591  -2.139  26.517  1.00 35.20     0.015 A 
HETATM   29  C10 RAL A 600      27.245  -2.366  26.280  1.00 38.32     0.037 A 
HETATM   30  C11 RAL A 600      26.276  -1.489  26.729  1.00 39.44     0.065 A 
HETATM   31  C12 RAL A 600      26.632  -0.404  27.503  1.00 36.17     0.037 A 
HETATM   32  C13 RAL A 600      27.983  -0.194  27.749  1.00 34.51     0.015 A 
BRANCH  30  33
HETATM   33  O11 RAL A 600      24.946  -1.804  26.446  1.00 46.17    -0.361 OA
ATOM     34  H11 RAL A 600      24.728  -2.007  25.544  1.00  0.00     0.217 HD
ENDBRANCH  30  33
ENDBRANCH   7  27
BRANCH   3  35
HETATM   35  O3  RAL A 600      36.137  -0.009  29.582  1.00 32.81    -0.361 OA
ATOM     36  H3  RAL A 600      36.568  -0.809  29.862  1.00  0.00     0.217 HD
ENDBRANCH   3  35
TORSDOF 9
