S58.pdb
  rDOCK(R)          3D
libRbt.so/2013.1/901 2013/11/27
 28 30  0  0  0  0  0  0  0  0999 V2000
   26.0288   21.4488   18.0379 C   0  0  0  0  0  0
   25.5787   21.8544   16.8184 C   0  0  0  0  0  0
   27.4677   21.8376   18.0980 C   0  0  0  0  0  0
   28.4705   21.5479   19.1746 C   0  0  0  0  0  0
   26.5494   23.2956   15.0533 C   0  0  0  0  0  0
   26.4546   22.6897   13.7941 C   0  0  0  0  0  0
   26.3304   23.4822   12.6626 C   0  0  0  0  0  0
   26.2977   24.8894   12.7959 C   0  0  0  0  0  0
   26.3919   25.4939   14.0607 C   0  0  0  0  0  0
   26.5213   24.6898   15.1958 C   0  0  0  0  0  0
   24.1961   21.6148   16.3025 C   0  0  0  0  0  0
   23.2366   20.9894   17.1388 C   0  0  0  0  0  0
   21.8946   20.8924   16.7264 C   0  0  0  0  0  0
   21.5074   21.4166   15.4960 C   0  0  0  0  0  0
   22.4547   22.0077   14.6529 C   0  0  0  0  0  0
   23.8070   22.1101   15.0563 C   0  0  0  0  0  0
   26.6100   22.4697   16.1459 N   0  0  0  0  0  0
   27.7675   22.4490   16.9844 N   0  0  0  0  0  0
   24.7370   26.9894   11.5704 N   0  0  0  0  0  0
   25.9545   25.1039   10.1687 O   0  0  0  0  0  0
   27.3197   26.7177   11.1784 O   0  0  0  0  0  0
   19.7145   21.4754   15.0602 Br  0  0  0  0  0  0
   28.1229   22.2145   20.3037 F   0  0  0  0  0  0
   29.7004   21.8860   18.7569 F   0  0  0  0  0  0
   28.4393   20.2339   19.4232 F   0  0  0  0  0  0
   26.1205   25.9397   11.3156 S   0  0  0  0  0  0
   24.6613   27.4986   12.4012 H   0  0  0  0  0  0
   24.0430   27.0673   10.8808 H   0  0  0  0  0  0
  1  3  1  0  0  0
  2  1  2  0  0  0
  2 17  1  0  0  0
  3 18  2  0  0  0
  3  4  1  0  0  0
  4 23  1  0  0  0
  4 25  1  0  0  0
  5 17  1  0  0  0
  5  6  2  0  0  0
  7  6  1  0  0  0
  8  7  2  0  0  0
  9 10  2  0  0  0
  9  8  1  0  0  0
 10  5  1  0  0  0
 11  2  1  0  0  0
 12 11  1  0  0  0
 13 12  2  0  0  0
 14 15  2  0  0  0
 14 13  1  0  0  0
 15 16  1  0  0  0
 16 11  2  0  0  0
 17 18  1  0  0  0
 19 28  1  0  0  0
 20 26  2  0  0  0
 22 14  1  0  0  0
 24  4  1  0  0  0
 26  8  1  0  0  0
 26 19  1  0  0  0
 26 21  2  0  0  0
 27 19  1  0  0  0
M  END
>  <CHROM.0>
-175.92284688,-134.62245465,75.98918220,-11.63391004,-44.52848873,6.09761221
-56.17066525

>  <CHROM.1>
-66.66454319,-82.37368284,3.63100921,125.18494380,49.92297722,24.93872821
22.84340372,15.28835896,0.68154195,0.26447513,2.16129206

>  <FORMUL>
      S58    C16 H11 Br1 F3 N3 O2 S1

>  <HET>
 S58  A 701      28

>  <HETNAM>
     S58 1-PHENYLSULFONAMIDE-3-TRIFLUOROMETHYL-5-PARABROMOPHENYL
   2 S58 PYRAZOLE

>  <Name>
S58.pdb

>  <RI>
0

>  <Rbt.Current_Directory>
/home/malgorzata/Desktop/rDOCK_IFD/Wyniki/3_COX2

>  <Rbt.Executable>
rbdock ($Id: //depot/dev/client3/rdock/2013.1/src/exe/rbdock.cxx#4 $)

>  <Rbt.Library>
libRbt.so (2013.1, Build901 2013/11/27)

>  <Rbt.Parameter_File>
/home/malgorzata/Desktop/rDock_2013.1_src/data/scripts/soft_docking.prm

>  <Rbt.Receptor>
cavity.prm

>  <SCORE>
-39.585

>  <SCORE.INTER>
-26.9421

>  <SCORE.INTER.CONST>
1

>  <SCORE.INTER.POLAR>
-1.3099

>  <SCORE.INTER.REPUL>
0

>  <SCORE.INTER.ROT>
5

>  <SCORE.INTER.VDW>
-32.8884

>  <SCORE.INTER.norm>
-1.03623

>  <SCORE.INTRA>
-0.368522

>  <SCORE.INTRA.DIHEDRAL>
-3.36251

>  <SCORE.INTRA.DIHEDRAL.0>
18.1022

>  <SCORE.INTRA.POLAR>
0

>  <SCORE.INTRA.POLAR.0>
0

>  <SCORE.INTRA.REPUL>
0

>  <SCORE.INTRA.REPUL.0>
0

>  <SCORE.INTRA.VDW>
0.30398

>  <SCORE.INTRA.VDW.0>
-2.81782

>  <SCORE.INTRA.norm>
-0.0141739

>  <SCORE.RESTR>
0.0687297

>  <SCORE.RESTR.CAVITY>
0.0137459

>  <SCORE.RESTR.norm>
0.00264345

>  <SCORE.SYSTEM>
-12.3431

>  <SCORE.SYSTEM.CONST>
0

>  <SCORE.SYSTEM.DIHEDRAL>
5.35679

>  <SCORE.SYSTEM.POLAR>
-2.67257

>  <SCORE.SYSTEM.VDW>
-5.93474

>  <SCORE.SYSTEM.norm>
-0.474734

>  <SCORE.heavy>
26

>  <SCORE.norm>
-1.5225

$$$$
S58.pdb
  rDOCK(R)          3D
libRbt.so/2013.1/901 2013/11/27
 28 30  0  0  0  0  0  0  0  0999 V2000
   21.3491   22.5178   15.0690 C   0  0  0  0  0  0
   22.7074   22.4744   15.1559 C   0  0  0  0  0  0
   20.8391   21.5327   16.0663 C   0  0  0  0  0  0
   19.4237   21.1093   16.3228 C   0  0  0  0  0  0
   24.2638   21.4262   16.7726 C   0  0  0  0  0  0
   24.5542   22.3353   17.7977 C   0  0  0  0  0  0
   25.7306   22.1977   18.5194 C   0  0  0  0  0  0
   26.6181   21.1405   18.2132 C   0  0  0  0  0  0
   26.3231   20.2296   17.1850 C   0  0  0  0  0  0
   25.1386   20.3766   16.4591 C   0  0  0  0  0  0
   23.6378   23.2615   14.2900 C   0  0  0  0  0  0
   23.1421   23.8837   13.1160 C   0  0  0  0  0  0
   23.9654   24.7497   12.3726 C   0  0  0  0  0  0
   25.2685   24.9999   12.7941 C   0  0  0  0  0  0
   25.7738   24.3658   13.9344 C   0  0  0  0  0  0
   24.9558   23.4924   14.6894 C   0  0  0  0  0  0
   23.0619   21.5672   16.1284 N   0  0  0  0  0  0
   21.8661   21.0112   16.6802 N   0  0  0  0  0  0
   27.8851   21.6038   20.7681 N   0  0  0  0  0  0
   29.2192   21.6172   18.4830 O   0  0  0  0  0  0
   28.4538   19.5393   19.2475 O   0  0  0  0  0  0
   26.2647   26.2964   11.9369 Br  0  0  0  0  0  0
   18.7111   22.1722   16.7730 F   0  0  0  0  0  0
   19.4023   20.0908   17.1967 F   0  0  0  0  0  0
   18.8998   20.7000   15.1619 F   0  0  0  0  0  0
   28.1607   20.9427   19.1657 S   0  0  0  0  0  0
   27.1030   21.3207   21.2815 H   0  0  0  0  0  0
   28.5146   22.2533   21.1490 H   0  0  0  0  0  0
  1  3  1  0  0  0
  2  1  2  0  0  0
  2 17  1  0  0  0
  3 18  2  0  0  0
  3  4  1  0  0  0
  4 23  1  0  0  0
  4 25  1  0  0  0
  5 17  1  0  0  0
  5  6  2  0  0  0
  7  6  1  0  0  0
  8  7  2  0  0  0
  9 10  2  0  0  0
  9  8  1  0  0  0
 10  5  1  0  0  0
 11  2  1  0  0  0
 12 11  1  0  0  0
 13 12  2  0  0  0
 14 15  2  0  0  0
 14 13  1  0  0  0
 15 16  1  0  0  0
 16 11  2  0  0  0
 17 18  1  0  0  0
 19 28  1  0  0  0
 20 26  2  0  0  0
 22 14  1  0  0  0
 24  4  1  0  0  0
 26  8  1  0  0  0
 26 19  1  0  0  0
 26 21  2  0  0  0
 27 19  1  0  0  0
M  END
>  <CHROM.0>
-170.17110419,168.91921762,26.21283497,121.46291087,38.14694690,175.34134508
-48.48051093

>  <CHROM.1>
-64.06663991,77.97824643,-14.13612801,28.00656817,50.93760232,24.45877589
22.63580421,15.74624417,1.57748554,-0.19770472,-0.90363225

>  <FORMUL>
      S58    C16 H11 Br1 F3 N3 O2 S1

>  <HET>
 S58  A 701      28

>  <HETNAM>
     S58 1-PHENYLSULFONAMIDE-3-TRIFLUOROMETHYL-5-PARABROMOPHENYL
   2 S58 PYRAZOLE

>  <Name>
S58.pdb

>  <RI>
0

>  <Rbt.Current_Directory>
/home/malgorzata/Desktop/rDOCK_IFD/Wyniki/3_COX2

>  <Rbt.Executable>
rbdock ($Id: //depot/dev/client3/rdock/2013.1/src/exe/rbdock.cxx#4 $)

>  <Rbt.Library>
libRbt.so (2013.1, Build901 2013/11/27)

>  <Rbt.Parameter_File>
/home/malgorzata/Desktop/rDock_2013.1_src/data/scripts/soft_docking.prm

>  <Rbt.Receptor>
cavity.prm

>  <SCORE>
-29.6408

>  <SCORE.INTER>
-22.9682

>  <SCORE.INTER.CONST>
1

>  <SCORE.INTER.POLAR>
0

>  <SCORE.INTER.REPUL>
0

>  <SCORE.INTER.ROT>
5

>  <SCORE.INTER.VDW>
-33.3682

>  <SCORE.INTER.norm>
-0.883392

>  <SCORE.INTRA>
-0.387267

>  <SCORE.INTRA.DIHEDRAL>
-1.27819

>  <SCORE.INTRA.DIHEDRAL.0>
18.1022

>  <SCORE.INTRA.POLAR>
0

>  <SCORE.INTRA.POLAR.0>
0

>  <SCORE.INTRA.REPUL>
0

>  <SCORE.INTRA.REPUL.0>
0

>  <SCORE.INTRA.VDW>
-0.131628

>  <SCORE.INTRA.VDW.0>
-2.81782

>  <SCORE.INTRA.norm>
-0.0148949

>  <SCORE.RESTR>
0.599632

>  <SCORE.RESTR.CAVITY>
0.119926

>  <SCORE.RESTR.norm>
0.0230628

>  <SCORE.SYSTEM>
-6.88498

>  <SCORE.SYSTEM.CONST>
0

>  <SCORE.SYSTEM.DIHEDRAL>
7.74948

>  <SCORE.SYSTEM.POLAR>
-1.84552

>  <SCORE.SYSTEM.VDW>
-4.48495

>  <SCORE.SYSTEM.norm>
-0.264807

>  <SCORE.heavy>
26

>  <SCORE.norm>
-1.14003

$$$$
S58.pdb
  rDOCK(R)          3D
libRbt.so/2013.1/901 2013/11/27
 28 30  0  0  0  0  0  0  0  0999 V2000
   26.6215   24.7171   14.0798 C   0  0  0  0  0  0
   25.8507   23.7740   14.6887 C   0  0  0  0  0  0
   25.7647   25.3345   13.0263 C   0  0  0  0  0  0
   26.1395   26.3599   11.9984 C   0  0  0  0  0  0
   23.4322   23.2485   14.5906 C   0  0  0  0  0  0
   22.4632   22.8748   13.6509 C   0  0  0  0  0  0
   21.2884   22.2771   14.0823 C   0  0  0  0  0  0
   21.0866   22.0500   15.4632 C   0  0  0  0  0  0
   22.0613   22.4250   16.4031 C   0  0  0  0  0  0
   23.2404   23.0307   15.9620 C   0  0  0  0  0  0
   26.3260   22.8623   15.7740 C   0  0  0  0  0  0
   27.5098   23.1815   16.4865 C   0  0  0  0  0  0
   27.8888   22.4188   17.6068 C   0  0  0  0  0  0
   27.0962   21.3510   18.0194 C   0  0  0  0  0  0
   25.9433   21.0118   17.3029 C   0  0  0  0  0  0
   25.5527   21.7707   16.1745 C   0  0  0  0  0  0
   24.6013   23.7804   14.1113 N   0  0  0  0  0  0
   24.5860   24.7771   13.0867 N   0  0  0  0  0  0
   19.9968   20.0303   17.2185 N   0  0  0  0  0  0
   18.8696   20.6890   14.9169 O   0  0  0  0  0  0
   18.7302   22.2597   16.6494 O   0  0  0  0  0  0
   27.4852   20.4949   19.6080 Br  0  0  0  0  0  0
   25.8233   25.8953   10.7638 F   0  0  0  0  0  0
   27.4455   26.6526   12.0996 F   0  0  0  0  0  0
   25.4243   27.4644   12.2392 F   0  0  0  0  0  0
   19.5514   21.2519   16.0393 S   0  0  0  0  0  0
   20.8727   19.6000   17.1635 H   0  0  0  0  0  0
   19.3706   19.7817   17.9321 H   0  0  0  0  0  0
  1  3  1  0  0  0
  2  1  2  0  0  0
  2 17  1  0  0  0
  3 18  2  0  0  0
  3  4  1  0  0  0
  4 23  1  0  0  0
  4 25  1  0  0  0
  5 17  1  0  0  0
  5  6  2  0  0  0
  7  6  1  0  0  0
  8  7  2  0  0  0
  9 10  2  0  0  0
  9  8  1  0  0  0
 10  5  1  0  0  0
 11  2  1  0  0  0
 12 11  1  0  0  0
 13 12  2  0  0  0
 14 15  2  0  0  0
 14 13  1  0  0  0
 15 16  1  0  0  0
 16 11  2  0  0  0
 17 18  1  0  0  0
 19 28  1  0  0  0
 20 26  2  0  0  0
 22 14  1  0  0  0
 24  4  1  0  0  0
 26  8  1  0  0  0
 26 19  1  0  0  0
 26 21  2  0  0  0
 27 19  1  0  0  0
M  END
>  <CHROM.0>
-48.18154843,-26.36693426,-54.26570649,140.07309117,-54.09393631,6.68185903
-73.88718756

>  <CHROM.1>
125.49070801,-153.65474391,17.57913008,134.65473374,-28.11721841,24.50937748
22.76845086,15.68590587,-1.56101526,0.20976799,2.25354334

>  <FORMUL>
      S58    C16 H11 Br1 F3 N3 O2 S1

>  <HET>
 S58  A 701      28

>  <HETNAM>
     S58 1-PHENYLSULFONAMIDE-3-TRIFLUOROMETHYL-5-PARABROMOPHENYL
   2 S58 PYRAZOLE

>  <Name>
S58.pdb

>  <RI>
0

>  <Rbt.Current_Directory>
/home/malgorzata/Desktop/rDOCK_IFD/Wyniki/3_COX2

>  <Rbt.Executable>
rbdock ($Id: //depot/dev/client3/rdock/2013.1/src/exe/rbdock.cxx#4 $)

>  <Rbt.Library>
libRbt.so (2013.1, Build901 2013/11/27)

>  <Rbt.Parameter_File>
/home/malgorzata/Desktop/rDock_2013.1_src/data/scripts/soft_docking.prm

>  <Rbt.Receptor>
cavity.prm

>  <SCORE>
-38.6665

>  <SCORE.INTER>
-28.9951

>  <SCORE.INTER.CONST>
1

>  <SCORE.INTER.POLAR>
-1.47283

>  <SCORE.INTER.REPUL>
0.0689262

>  <SCORE.INTER.ROT>
5

>  <SCORE.INTER.VDW>
-34.7321

>  <SCORE.INTER.norm>
-1.1152

>  <SCORE.INTRA>
1.35179

>  <SCORE.INTRA.DIHEDRAL>
-10.0502

>  <SCORE.INTRA.DIHEDRAL.0>
18.1022

>  <SCORE.INTRA.POLAR>
0

>  <SCORE.INTRA.POLAR.0>
0

>  <SCORE.INTRA.REPUL>
0

>  <SCORE.INTRA.REPUL.0>
0

>  <SCORE.INTRA.VDW>
3.36182

>  <SCORE.INTRA.VDW.0>
-2.81782

>  <SCORE.INTRA.norm>
0.051992

>  <SCORE.RESTR>
0.716669

>  <SCORE.RESTR.CAVITY>
0.143334

>  <SCORE.RESTR.norm>
0.0275642

>  <SCORE.SYSTEM>
-11.7399

>  <SCORE.SYSTEM.CONST>
0

>  <SCORE.SYSTEM.DIHEDRAL>
5.366

>  <SCORE.SYSTEM.POLAR>
-2.59347

>  <SCORE.SYSTEM.VDW>
-5.60506

>  <SCORE.SYSTEM.norm>
-0.451533

>  <SCORE.heavy>
26

>  <SCORE.norm>
-1.48717

$$$$
S58.pdb
  rDOCK(R)          3D
libRbt.so/2013.1/901 2013/11/27
 28 30  0  0  0  0  0  0  0  0999 V2000
   26.4380   17.2036   18.0766 C   0  0  0  0  0  0
   26.1720   18.5076   17.7880 C   0  0  0  0  0  0
   25.2545   16.4263   17.6073 C   0  0  0  0  0  0
   24.9775   14.9607   17.7613 C   0  0  0  0  0  0
   24.4190   19.6138   16.4322 C   0  0  0  0  0  0
   24.3094   20.8622   17.0575 C   0  0  0  0  0  0
   23.8396   21.9489   16.3350 C   0  0  0  0  0  0
   23.4815   21.7826   14.9773 C   0  0  0  0  0  0
   23.5938   20.5291   14.3528 C   0  0  0  0  0  0
   24.0634   19.4378   15.0877 C   0  0  0  0  0  0
   27.0660   19.6530   18.1397 C   0  0  0  0  0  0
   27.7416   20.3545   17.1089 C   0  0  0  0  0  0
   28.4650   21.5245   17.4058 C   0  0  0  0  0  0
   28.5131   21.9970   18.7146 C   0  0  0  0  0  0
   27.8742   21.2931   19.7413 C   0  0  0  0  0  0
   27.1446   20.1151   19.4551 C   0  0  0  0  0  0
   24.9447   18.5847   17.1697 N   0  0  0  0  0  0
   24.4115   17.2624   17.0653 N   0  0  0  0  0  0
   23.0914   22.8323   12.3139 N   0  0  0  0  0  0
   23.6051   24.3748   14.4016 O   0  0  0  0  0  0
   21.4831   23.3862   14.3150 O   0  0  0  0  0  0
   29.2813   23.6404   19.0568 Br  0  0  0  0  0  0
   23.8925   14.7895   18.5571 F   0  0  0  0  0  0
   26.0598   14.3404   18.2568 F   0  0  0  0  0  0
   24.7057   14.4637   16.5494 F   0  0  0  0  0  0
   22.8761   23.2084   14.0148 S   0  0  0  0  0  0
   22.7705   23.4575   11.6347 H   0  0  0  0  0  0
   23.5346   21.9989   12.0450 H   0  0  0  0  0  0
  1  3  1  0  0  0
  2  1  2  0  0  0
  2 17  1  0  0  0
  3 18  2  0  0  0
  3  4  1  0  0  0
  4 23  1  0  0  0
  4 25  1  0  0  0
  5 17  1  0  0  0
  5  6  2  0  0  0
  7  6  1  0  0  0
  8  7  2  0  0  0
  9 10  2  0  0  0
  9  8  1  0  0  0
 10  5  1  0  0  0
 11  2  1  0  0  0
 12 11  1  0  0  0
 13 12  2  0  0  0
 14 15  2  0  0  0
 14 13  1  0  0  0
 15 16  1  0  0  0
 16 11  2  0  0  0
 17 18  1  0  0  0
 19 28  1  0  0  0
 20 26  2  0  0  0
 22 14  1  0  0  0
 24  4  1  0  0  0
 26  8  1  0  0  0
 26 19  1  0  0  0
 26 21  2  0  0  0
 27 19  1  0  0  0
M  END
>  <CHROM.0>
122.67647249,177.37252119,-78.40638198,-118.01565649,-65.94200834,59.35044309
-72.46868001

>  <CHROM.1>
114.77892491,-57.93348296,110.85724858,159.46182579,176.12493297,25.71343324
20.33838918,17.01441313,-1.86757210,-0.67149536,-0.25120869

>  <FORMUL>
      S58    C16 H11 Br1 F3 N3 O2 S1

>  <HET>
 S58  A 701      28

>  <HETNAM>
     S58 1-PHENYLSULFONAMIDE-3-TRIFLUOROMETHYL-5-PARABROMOPHENYL
   2 S58 PYRAZOLE

>  <Name>
S58.pdb

>  <RI>
0

>  <Rbt.Current_Directory>
/home/malgorzata/Desktop/rDOCK_IFD/Wyniki/3_COX2

>  <Rbt.Executable>
rbdock ($Id: //depot/dev/client3/rdock/2013.1/src/exe/rbdock.cxx#4 $)

>  <Rbt.Library>
libRbt.so (2013.1, Build901 2013/11/27)

>  <Rbt.Parameter_File>
/home/malgorzata/Desktop/rDock_2013.1_src/data/scripts/soft_docking.prm

>  <Rbt.Receptor>
cavity.prm

>  <SCORE>
-30.4283

>  <SCORE.INTER>
-20.8514

>  <SCORE.INTER.CONST>
1

>  <SCORE.INTER.POLAR>
-0.617225

>  <SCORE.INTER.REPUL>
0.175799

>  <SCORE.INTER.ROT>
5

>  <SCORE.INTER.VDW>
-30.0318

>  <SCORE.INTER.norm>
-0.801976

>  <SCORE.INTRA>
0.0931149

>  <SCORE.INTRA.DIHEDRAL>
4.18122

>  <SCORE.INTRA.DIHEDRAL.0>
18.1022

>  <SCORE.INTRA.POLAR>
0

>  <SCORE.INTRA.POLAR.0>
0

>  <SCORE.INTRA.REPUL>
0

>  <SCORE.INTRA.REPUL.0>
0

>  <SCORE.INTRA.VDW>
-0.743129

>  <SCORE.INTRA.VDW.0>
-2.81782

>  <SCORE.INTRA.norm>
0.00358134

>  <SCORE.RESTR>
0

>  <SCORE.RESTR.CAVITY>
0

>  <SCORE.RESTR.norm>
0

>  <SCORE.SYSTEM>
-9.67004

>  <SCORE.SYSTEM.CONST>
0

>  <SCORE.SYSTEM.DIHEDRAL>
9.93443

>  <SCORE.SYSTEM.POLAR>
-2.78992

>  <SCORE.SYSTEM.REPUL>
0.233659

>  <SCORE.SYSTEM.VDW>
-6.31982

>  <SCORE.SYSTEM.norm>
-0.371925

>  <SCORE.heavy>
26

>  <SCORE.norm>
-1.17032

$$$$
S58.pdb
  rDOCK(R)          3D
libRbt.so/2013.1/901 2013/11/27
 28 30  0  0  0  0  0  0  0  0999 V2000
   24.1516   21.0978   17.4169 C   0  0  0  0  0  0
   23.4987   21.4286   16.2686 C   0  0  0  0  0  0
   25.5394   20.7297   17.0124 C   0  0  0  0  0  0
   26.6519   20.1972   17.8653 C   0  0  0  0  0  0
   24.2629   21.8319   13.9473 C   0  0  0  0  0  0
   23.1917   21.3895   13.1609 C   0  0  0  0  0  0
   23.0034   21.9297   11.8974 C   0  0  0  0  0  0
   23.8924   22.9214   11.4224 C   0  0  0  0  0  0
   24.9652   23.3637   12.2144 C   0  0  0  0  0  0
   25.1517   22.8121   13.4843 C   0  0  0  0  0  0
   22.0545   21.8076   16.1937 C   0  0  0  0  0  0
   21.6957   23.1159   15.7803 C   0  0  0  0  0  0
   20.3448   23.4427   15.5597 C   0  0  0  0  0  0
   19.3586   22.4771   15.7429 C   0  0  0  0  0  0
   19.7028   21.1932   16.1800 C   0  0  0  0  0  0
   21.0575   20.8533   16.4060 C   0  0  0  0  0  0
   24.3722   21.3123   15.2112 N   0  0  0  0  0  0
   25.6380   20.8857   15.7203 N   0  0  0  0  0  0
   25.2236   24.0856    9.1377 N   0  0  0  0  0  0
   22.7810   24.7803    9.8813 O   0  0  0  0  0  0
   23.0321   22.6525    8.9341 O   0  0  0  0  0  0
   17.6205   22.8519   15.2469 Br  0  0  0  0  0  0
   26.1271   19.5359   18.9271 F   0  0  0  0  0  0
   27.4526   21.2025   18.2524 F   0  0  0  0  0  0
   27.3594   19.3345   17.1273 F   0  0  0  0  0  0
   23.6450   23.6480    9.7681 S   0  0  0  0  0  0
   25.2896   24.6932    8.3749 H   0  0  0  0  0  0
   26.0374   23.7243    9.5505 H   0  0  0  0  0  0
  1  3  1  0  0  0
  2  1  2  0  0  0
  2 17  1  0  0  0
  3 18  2  0  0  0
  3  4  1  0  0  0
  4 23  1  0  0  0
  4 25  1  0  0  0
  5 17  1  0  0  0
  5  6  2  0  0  0
  7  6  1  0  0  0
  8  7  2  0  0  0
  9 10  2  0  0  0
  9  8  1  0  0  0
 10  5  1  0  0  0
 11  2  1  0  0  0
 12 11  1  0  0  0
 13 12  2  0  0  0
 14 15  2  0  0  0
 14 13  1  0  0  0
 15 16  1  0  0  0
 16 11  2  0  0  0
 17 18  1  0  0  0
 19 28  1  0  0  0
 20 26  2  0  0  0
 22 14  1  0  0  0
 24  4  1  0  0  0
 26  8  1  0  0  0
 26 19  1  0  0  0
 26 21  2  0  0  0
 27 19  1  0  0  0
M  END
>  <CHROM.0>
179.98702004,-171.42002848,-87.84866636,2.32239591,-56.43536466,108.46454804
-76.80047812

>  <CHROM.1>
26.77481491,-63.02251164,115.78046490,-149.24363971,-164.16810207,22.79801761
22.12535990,14.48979324,0.65043832,-0.17705313,1.91781063

>  <FORMUL>
      S58    C16 H11 Br1 F3 N3 O2 S1

>  <HET>
 S58  A 701      28

>  <HETNAM>
     S58 1-PHENYLSULFONAMIDE-3-TRIFLUOROMETHYL-5-PARABROMOPHENYL
   2 S58 PYRAZOLE

>  <Name>
S58.pdb

>  <RI>
0

>  <Rbt.Current_Directory>
/home/malgorzata/Desktop/rDOCK_IFD/Wyniki/3_COX2

>  <Rbt.Executable>
rbdock ($Id: //depot/dev/client3/rdock/2013.1/src/exe/rbdock.cxx#4 $)

>  <Rbt.Library>
libRbt.so (2013.1, Build901 2013/11/27)

>  <Rbt.Parameter_File>
/home/malgorzata/Desktop/rDock_2013.1_src/data/scripts/soft_docking.prm

>  <Rbt.Receptor>
cavity.prm

>  <SCORE>
-41.0753

>  <SCORE.INTER>
-32.313

>  <SCORE.INTER.CONST>
1

>  <SCORE.INTER.POLAR>
0

>  <SCORE.INTER.REPUL>
0.031112

>  <SCORE.INTER.ROT>
5

>  <SCORE.INTER.VDW>
-42.8685

>  <SCORE.INTER.norm>
-1.24281

>  <SCORE.INTRA>
0.135224

>  <SCORE.INTRA.DIHEDRAL>
4.44951

>  <SCORE.INTRA.DIHEDRAL.0>
18.1022

>  <SCORE.INTRA.POLAR>
0

>  <SCORE.INTRA.POLAR.0>
0

>  <SCORE.INTRA.REPUL>
0

>  <SCORE.INTRA.REPUL.0>
0

>  <SCORE.INTRA.VDW>
-0.754678

>  <SCORE.INTRA.VDW.0>
-2.81782

>  <SCORE.INTRA.norm>
0.00520092

>  <SCORE.RESTR>
1.12006

>  <SCORE.RESTR.CAVITY>
0.224012

>  <SCORE.RESTR.norm>
0.0430792

>  <SCORE.SYSTEM>
-10.0176

>  <SCORE.SYSTEM.CONST>
0

>  <SCORE.SYSTEM.DIHEDRAL>
9.38392

>  <SCORE.SYSTEM.POLAR>
-2.58294

>  <SCORE.SYSTEM.VDW>
-5.92753

>  <SCORE.SYSTEM.norm>
-0.385291

>  <SCORE.heavy>
26

>  <SCORE.norm>
-1.57982

$$$$
S58.pdb
  rDOCK(R)          3D
libRbt.so/2013.1/901 2013/11/27
 28 30  0  0  0  0  0  0  0  0999 V2000
   23.5366   21.9370   13.2428 C   0  0  0  0  0  0
   24.1988   23.0057   12.7194 C   0  0  0  0  0  0
   24.1103   21.7204   14.6027 C   0  0  0  0  0  0
   23.8134   20.6213   15.5786 C   0  0  0  0  0  0
   25.7473   24.6755   13.6935 C   0  0  0  0  0  0
   26.9103   24.7574   14.4697 C   0  0  0  0  0  0
   27.6286   25.9434   14.5004 C   0  0  0  0  0  0
   27.1795   27.0515   13.7457 C   0  0  0  0  0  0
   26.0131   26.9656   12.9672 C   0  0  0  0  0  0
   25.2919   25.7693   12.9443 C   0  0  0  0  0  0
   23.9868   23.5416   11.3400 C   0  0  0  0  0  0
   22.8214   24.2980   11.0554 C   0  0  0  0  0  0
   22.6784   24.9352    9.8089 C   0  0  0  0  0  0
   23.6864   24.8267    8.8546 C   0  0  0  0  0  0
   24.8250   24.0570    9.1174 C   0  0  0  0  0  0
   24.9795   23.4110   10.3666 C   0  0  0  0  0  0
   25.1055   23.4650   13.6476 N   0  0  0  0  0  0
   25.0094   22.6429   14.8131 N   0  0  0  0  0  0
   29.6641   28.3118   12.9799 N   0  0  0  0  0  0
   28.2904   29.0355   15.1226 O   0  0  0  0  0  0
   27.3733   29.5950   13.0409 O   0  0  0  0  0  0
   23.5867   25.8367    7.3126 Br  0  0  0  0  0  0
   24.6307   19.5674   15.3308 F   0  0  0  0  0  0
   22.5189   20.2758   15.4982 F   0  0  0  0  0  0
   24.0668   21.0833   16.8081 F   0  0  0  0  0  0
   28.1247   28.6110   13.7684 S   0  0  0  0  0  0
   30.4886   28.3274   13.5045 H   0  0  0  0  0  0
   29.6974   28.1269   12.0166 H   0  0  0  0  0  0
  1  3  1  0  0  0
  2  1  2  0  0  0
  2 17  1  0  0  0
  3 18  2  0  0  0
  3  4  1  0  0  0
  4 23  1  0  0  0
  4 25  1  0  0  0
  5 17  1  0  0  0
  5  6  2  0  0  0
  7  6  1  0  0  0
  8  7  2  0  0  0
  9 10  2  0  0  0
  9  8  1  0  0  0
 10  5  1  0  0  0
 11  2  1  0  0  0
 12 11  1  0  0  0
 13 12  2  0  0  0
 14 15  2  0  0  0
 14 13  1  0  0  0
 15 16  1  0  0  0
 16 11  2  0  0  0
 17 18  1  0  0  0
 19 28  1  0  0  0
 20 26  2  0  0  0
 22 14  1  0  0  0
 24  4  1  0  0  0
 26  8  1  0  0  0
 26 19  1  0  0  0
 26 21  2  0  0  0
 27 19  1  0  0  0
M  END
>  <CHROM.0>
-96.28169429,170.14155835,-85.72087543,-61.09515186,-49.29348102,91.00938176
-78.42096020

>  <CHROM.1>
87.77656215,-160.42669990,75.17610005,66.93336477,-111.78980340,25.11592813
24.77330335,12.29632010,1.76775978,0.90021574,2.17452366

>  <FORMUL>
      S58    C16 H11 Br1 F3 N3 O2 S1

>  <HET>
 S58  A 701      28

>  <HETNAM>
     S58 1-PHENYLSULFONAMIDE-3-TRIFLUOROMETHYL-5-PARABROMOPHENYL
   2 S58 PYRAZOLE

>  <Name>
S58.pdb

>  <RI>
0

>  <Rbt.Current_Directory>
/home/malgorzata/Desktop/rDOCK_IFD/Wyniki/3_COX2

>  <Rbt.Executable>
rbdock ($Id: //depot/dev/client3/rdock/2013.1/src/exe/rbdock.cxx#4 $)

>  <Rbt.Library>
libRbt.so (2013.1, Build901 2013/11/27)

>  <Rbt.Parameter_File>
/home/malgorzata/Desktop/rDock_2013.1_src/data/scripts/soft_docking.prm

>  <Rbt.Receptor>
cavity.prm

>  <SCORE>
-38.2881

>  <SCORE.INTER>
-32.1214

>  <SCORE.INTER.CONST>
1

>  <SCORE.INTER.POLAR>
-1.07037

>  <SCORE.INTER.REPUL>
0.00318505

>  <SCORE.INTER.ROT>
5

>  <SCORE.INTER.VDW>
-38.8981

>  <SCORE.INTER.norm>
-1.23544

>  <SCORE.INTRA>
-0.239117

>  <SCORE.INTRA.DIHEDRAL>
-0.529479

>  <SCORE.INTRA.DIHEDRAL.0>
18.1022

>  <SCORE.INTRA.POLAR>
0

>  <SCORE.INTRA.POLAR.0>
0

>  <SCORE.INTRA.REPUL>
0

>  <SCORE.INTRA.REPUL.0>
0

>  <SCORE.INTRA.VDW>
-0.133221

>  <SCORE.INTRA.VDW.0>
-2.81782

>  <SCORE.INTRA.norm>
-0.00919682

>  <SCORE.RESTR>
1.46313

>  <SCORE.RESTR.CAVITY>
0.292627

>  <SCORE.RESTR.norm>
0.0562744

>  <SCORE.SYSTEM>
-7.39069

>  <SCORE.SYSTEM.CONST>
0

>  <SCORE.SYSTEM.DIHEDRAL>
14.9379

>  <SCORE.SYSTEM.POLAR>
-2.61149

>  <SCORE.SYSTEM.VDW>
-5.98056

>  <SCORE.SYSTEM.norm>
-0.284257

>  <SCORE.heavy>
26

>  <SCORE.norm>
-1.47262

$$$$
S58.pdb
  rDOCK(R)          3D
libRbt.so/2013.1/901 2013/11/27
 28 30  0  0  0  0  0  0  0  0999 V2000
   21.1450   21.0684   16.0657 C   0  0  0  0  0  0
   22.3219   21.6371   15.6840 C   0  0  0  0  0  0
   20.0824   21.7346   15.2579 C   0  0  0  0  0  0
   18.5956   21.5590   15.3421 C   0  0  0  0  0  0
   22.9425   23.1464   13.8206 C   0  0  0  0  0  0
   22.3949   23.8270   12.7258 C   0  0  0  0  0  0
   23.2365   24.4763   11.8350 C   0  0  0  0  0  0
   24.6342   24.4456   12.0459 C   0  0  0  0  0  0
   25.1801   23.7630   13.1459 C   0  0  0  0  0  0
   24.3270   23.1072   14.0368 C   0  0  0  0  0  0
   23.6533   21.3124   16.2814 C   0  0  0  0  0  0
   24.2636   22.2330   17.1708 C   0  0  0  0  0  0
   25.4403   21.8798   17.8572 C   0  0  0  0  0  0
   26.0036   20.6210   17.6660 C   0  0  0  0  0  0
   25.4237   19.7192   16.7670 C   0  0  0  0  0  0
   24.2412   20.0635   16.0705 C   0  0  0  0  0  0
   22.0676   22.5714   14.7057 N   0  0  0  0  0  0
   20.6594   22.5920   14.4607 N   0  0  0  0  0  0
   24.8383   25.6454    9.4255 N   0  0  0  0  0  0
   26.8853   24.4814   10.6326 O   0  0  0  0  0  0
   26.1696   26.5330   11.5083 O   0  0  0  0  0  0
   27.4184   20.0910   18.7267 Br  0  0  0  0  0  0
   18.0940   22.4125   16.2695 F   0  0  0  0  0  0
   18.3017   20.2818   15.6319 F   0  0  0  0  0  0
   18.0767   21.8666   14.1481 F   0  0  0  0  0  0
   25.7483   25.3082   10.8881 S   0  0  0  0  0  0
   25.2917   25.6368    8.5597 H   0  0  0  0  0  0
   23.8775   25.8393    9.4758 H   0  0  0  0  0  0
  1  3  1  0  0  0
  2  1  2  0  0  0
  2 17  1  0  0  0
  3 18  2  0  0  0
  3  4  1  0  0  0
  4 23  1  0  0  0
  4 25  1  0  0  0
  5 17  1  0  0  0
  5  6  2  0  0  0
  7  6  1  0  0  0
  8  7  2  0  0  0
  9 10  2  0  0  0
  9  8  1  0  0  0
 10  5  1  0  0  0
 11  2  1  0  0  0
 12 11  1  0  0  0
 13 12  2  0  0  0
 14 15  2  0  0  0
 14 13  1  0  0  0
 15 16  1  0  0  0
 16 11  2  0  0  0
 17 18  1  0  0  0
 19 28  1  0  0  0
 20 26  2  0  0  0
 22 14  1  0  0  0
 24  4  1  0  0  0
 26  8  1  0  0  0
 26 19  1  0  0  0
 26 21  2  0  0  0
 27 19  1  0  0  0
M  END
>  <CHROM.0>
157.52935799,159.04558569,162.93333249,52.40069722,-74.53266833,154.74813961
-89.72491989

>  <CHROM.1>
87.47563340,165.32513296,-105.18504253,-16.39735419,-146.65734492,23.76317598
22.32856116,14.95586436,1.23984760,0.07885764,2.17823592

>  <FORMUL>
      S58    C16 H11 Br1 F3 N3 O2 S1

>  <HET>
 S58  A 701      28

>  <HETNAM>
     S58 1-PHENYLSULFONAMIDE-3-TRIFLUOROMETHYL-5-PARABROMOPHENYL
   2 S58 PYRAZOLE

>  <Name>
S58.pdb

>  <RI>
0

>  <Rbt.Current_Directory>
/home/malgorzata/Desktop/rDOCK_IFD/Wyniki/3_COX2

>  <Rbt.Executable>
rbdock ($Id: //depot/dev/client3/rdock/2013.1/src/exe/rbdock.cxx#4 $)

>  <Rbt.Library>
libRbt.so (2013.1, Build901 2013/11/27)

>  <Rbt.Parameter_File>
/home/malgorzata/Desktop/rDock_2013.1_src/data/scripts/soft_docking.prm

>  <Rbt.Receptor>
cavity.prm

>  <SCORE>
-42.0429

>  <SCORE.INTER>
-34.1749

>  <SCORE.INTER.CONST>
1

>  <SCORE.INTER.POLAR>
-1.21585

>  <SCORE.INTER.REPUL>
0.0432731

>  <SCORE.INTER.ROT>
5

>  <SCORE.INTER.VDW>
-40.6573

>  <SCORE.INTER.norm>
-1.31442

>  <SCORE.INTRA>
-0.250728

>  <SCORE.INTRA.DIHEDRAL>
-3.00874

>  <SCORE.INTRA.DIHEDRAL.0>
18.1022

>  <SCORE.INTRA.POLAR>
0

>  <SCORE.INTRA.POLAR.0>
0

>  <SCORE.INTRA.REPUL>
0

>  <SCORE.INTRA.REPUL.0>
0

>  <SCORE.INTRA.VDW>
0.351021

>  <SCORE.INTRA.VDW.0>
-2.81782

>  <SCORE.INTRA.norm>
-0.00964338

>  <SCORE.RESTR>
0.971203

>  <SCORE.RESTR.CAVITY>
0.194241

>  <SCORE.RESTR.norm>
0.037354

>  <SCORE.SYSTEM>
-8.58855

>  <SCORE.SYSTEM.CONST>
0

>  <SCORE.SYSTEM.DIHEDRAL>
8.45051

>  <SCORE.SYSTEM.POLAR>
-2.06124

>  <SCORE.SYSTEM.VDW>
-5.8056

>  <SCORE.SYSTEM.norm>
-0.330329

>  <SCORE.heavy>
26

>  <SCORE.norm>
-1.61704

$$$$
S58.pdb
  rDOCK(R)          3D
libRbt.so/2013.1/901 2013/11/27
 28 30  0  0  0  0  0  0  0  0999 V2000
   25.2303   21.5473   18.1871 C   0  0  0  0  0  0
   24.7361   21.9036   16.9693 C   0  0  0  0  0  0
   26.7102   21.7112   18.0971 C   0  0  0  0  0  0
   27.7528   21.3697   19.1193 C   0  0  0  0  0  0
   25.7445   23.0066   14.9940 C   0  0  0  0  0  0
   26.3214   22.4229   13.8590 C   0  0  0  0  0  0
   26.2566   23.0859   12.6426 C   0  0  0  0  0  0
   25.6065   24.3391   12.5641 C   0  0  0  0  0  0
   25.0279   24.9211   13.7044 C   0  0  0  0  0  0
   25.1008   24.2500   14.9275 C   0  0  0  0  0  0
   23.2923   21.8357   16.5875 C   0  0  0  0  0  0
   22.3764   21.1608   17.4341 C   0  0  0  0  0  0
   20.9954   21.2157   17.1691 C   0  0  0  0  0  0
   20.5271   21.9390   16.0755 C   0  0  0  0  0  0
   21.4273   22.5819   15.2188 C   0  0  0  0  0  0
   22.8180   22.5330   15.4745 C   0  0  0  0  0  0
   25.7815   22.2859   16.1597 N   0  0  0  0  0  0
   26.9946   22.1628   16.9059 N   0  0  0  0  0  0
   25.6252   24.0094    9.6938 N   0  0  0  0  0  0
   26.5557   26.1764   10.8939 O   0  0  0  0  0  0
   24.2323   25.8771   10.9060 O   0  0  0  0  0  0
   18.7097   22.1814   15.8607 Br  0  0  0  0  0  0
   27.2714   21.6372   20.3590 F   0  0  0  0  0  0
   28.8812   22.0511   18.8668 F   0  0  0  0  0  0
   28.0043   20.0590   19.0285 F   0  0  0  0  0  0
   25.5037   25.2122   10.9663 S   0  0  0  0  0  0
   25.8296   24.2894    8.7800 H   0  0  0  0  0  0
   25.4911   23.0590    9.8986 H   0  0  0  0  0  0
  1  3  1  0  0  0
  2  1  2  0  0  0
  2 17  1  0  0  0
  3 18  2  0  0  0
  3  4  1  0  0  0
  4 23  1  0  0  0
  4 25  1  0  0  0
  5 17  1  0  0  0
  5  6  2  0  0  0
  7  6  1  0  0  0
  8  7  2  0  0  0
  9 10  2  0  0  0
  9  8  1  0  0  0
 10  5  1  0  0  0
 11  2  1  0  0  0
 12 11  1  0  0  0
 13 12  2  0  0  0
 14 15  2  0  0  0
 14 13  1  0  0  0
 15 16  1  0  0  0
 16 11  2  0  0  0
 17 18  1  0  0  0
 19 28  1  0  0  0
 20 26  2  0  0  0
 22 14  1  0  0  0
 24  4  1  0  0  0
 26  8  1  0  0  0
 26 19  1  0  0  0
 26 21  2  0  0  0
 27 19  1  0  0  0
M  END
>  <CHROM.0>
20.34539015,-32.56841105,131.75908465,-99.13932629,-43.71582682,165.29677153
-72.37032756

>  <CHROM.1>
-36.59086927,-123.89880216,-11.01021384,24.71712532,-163.68543120,24.14512476
22.76433123,15.39740140,0.28578837,0.07495807,2.03261325

>  <FORMUL>
      S58    C16 H11 Br1 F3 N3 O2 S1

>  <HET>
 S58  A 701      28

>  <HETNAM>
     S58 1-PHENYLSULFONAMIDE-3-TRIFLUOROMETHYL-5-PARABROMOPHENYL
   2 S58 PYRAZOLE

>  <Name>
S58.pdb

>  <RI>
0

>  <Rbt.Current_Directory>
/home/malgorzata/Desktop/rDOCK_IFD/Wyniki/3_COX2

>  <Rbt.Executable>
rbdock ($Id: //depot/dev/client3/rdock/2013.1/src/exe/rbdock.cxx#4 $)

>  <Rbt.Library>
libRbt.so (2013.1, Build901 2013/11/27)

>  <Rbt.Parameter_File>
/home/malgorzata/Desktop/rDock_2013.1_src/data/scripts/soft_docking.prm

>  <Rbt.Receptor>
cavity.prm

>  <SCORE>
-36.5216

>  <SCORE.INTER>
-27.477

>  <SCORE.INTER.CONST>
1

>  <SCORE.INTER.POLAR>
-0.612112

>  <SCORE.INTER.REPUL>
0.0211822

>  <SCORE.INTER.ROT>
5

>  <SCORE.INTER.VDW>
-35.9018

>  <SCORE.INTER.norm>
-1.05681

>  <SCORE.INTRA>
-0.147172

>  <SCORE.INTRA.DIHEDRAL>
-3.83107

>  <SCORE.INTRA.DIHEDRAL.0>
18.1022

>  <SCORE.INTRA.POLAR>
0

>  <SCORE.INTRA.POLAR.0>
0

>  <SCORE.INTRA.REPUL>
0

>  <SCORE.INTRA.REPUL.0>
0

>  <SCORE.INTRA.VDW>
0.619042

>  <SCORE.INTRA.VDW.0>
-2.81782

>  <SCORE.INTRA.norm>
-0.00566048

>  <SCORE.RESTR>
0

>  <SCORE.RESTR.CAVITY>
0

>  <SCORE.RESTR.norm>
0

>  <SCORE.SYSTEM>
-8.89743

>  <SCORE.SYSTEM.CONST>
0

>  <SCORE.SYSTEM.DIHEDRAL>
11.0548

>  <SCORE.SYSTEM.POLAR>
-2.83375

>  <SCORE.SYSTEM.REPUL>
0.150156

>  <SCORE.SYSTEM.VDW>
-5.54083

>  <SCORE.SYSTEM.norm>
-0.342209

>  <SCORE.heavy>
26

>  <SCORE.norm>
-1.40468

$$$$
S58.pdb
  rDOCK(R)          3D
libRbt.so/2013.1/901 2013/11/27
 28 30  0  0  0  0  0  0  0  0999 V2000
   27.0866   23.0506   15.7437 C   0  0  0  0  0  0
   26.2143   22.0866   16.1489 C   0  0  0  0  0  0
   26.3639   23.8580   14.7184 C   0  0  0  0  0  0
   26.8852   24.9852   13.8781 C   0  0  0  0  0  0
   23.7905   21.7375   15.7768 C   0  0  0  0  0  0
   22.6737   22.3933   15.2436 C   0  0  0  0  0  0
   21.4063   21.8774   15.4700 C   0  0  0  0  0  0
   21.2594   20.6956   16.2322 C   0  0  0  0  0  0
   22.3819   20.0396   16.7646 C   0  0  0  0  0  0
   23.6552   20.5672   16.5365 C   0  0  0  0  0  0
   26.5390   21.0089   17.1327 C   0  0  0  0  0  0
   25.9227   21.0194   18.4099 C   0  0  0  0  0  0
   26.0996   19.9356   19.2899 C   0  0  0  0  0  0
   26.8779   18.8478   18.9031 C   0  0  0  0  0  0
   27.5135   18.8446   17.6566 C   0  0  0  0  0  0
   27.3438   19.9290   16.7638 C   0  0  0  0  0  0
   25.0252   22.2516   15.4756 N   0  0  0  0  0  0
   25.1568   23.3754   14.6019 N   0  0  0  0  0  0
   18.4360   21.3020   16.3263 N   0  0  0  0  0  0
   19.5529   19.4375   17.8357 O   0  0  0  0  0  0
   19.3698   18.9743   15.5466 O   0  0  0  0  0  0
   26.9287   17.3442   19.9728 Br  0  0  0  0  0  0
   25.9920   26.0060   13.8912 F   0  0  0  0  0  0
   27.1263   24.5521   12.6308 F   0  0  0  0  0  0
   28.0313   25.4086   14.4228 F   0  0  0  0  0  0
   19.5983   20.0016   16.5237 S   0  0  0  0  0  0
   17.5172   21.0954   16.0649 H   0  0  0  0  0  0
   18.7062   22.2329   16.4800 H   0  0  0  0  0  0
  1  3  1  0  0  0
  2  1  2  0  0  0
  2 17  1  0  0  0
  3 18  2  0  0  0
  3  4  1  0  0  0
  4 23  1  0  0  0
  4 25  1  0  0  0
  5 17  1  0  0  0
  5  6  2  0  0  0
  7  6  1  0  0  0
  8  7  2  0  0  0
  9 10  2  0  0  0
  9  8  1  0  0  0
 10  5  1  0  0  0
 11  2  1  0  0  0
 12 11  1  0  0  0
 13 12  2  0  0  0
 14 15  2  0  0  0
 14 13  1  0  0  0
 15 16  1  0  0  0
 16 11  2  0  0  0
 17 18  1  0  0  0
 19 28  1  0  0  0
 20 26  2  0  0  0
 22 14  1  0  0  0
 24  4  1  0  0  0
 26  8  1  0  0  0
 26 19  1  0  0  0
 26 21  2  0  0  0
 27 19  1  0  0  0
M  END
>  <CHROM.0>
-143.09689399,-129.00470634,64.50590860,138.21109042,-64.26658026,153.31516139
-62.18421812

>  <CHROM.1>
-134.06927792,158.32118581,111.40962861,-22.62192694,153.98592082,24.64258438
20.95158951,16.70044851,-1.46017740,0.13683831,2.46642834

>  <FORMUL>
      S58    C16 H11 Br1 F3 N3 O2 S1

>  <HET>
 S58  A 701      28

>  <HETNAM>
     S58 1-PHENYLSULFONAMIDE-3-TRIFLUOROMETHYL-5-PARABROMOPHENYL
   2 S58 PYRAZOLE

>  <Name>
S58.pdb

>  <RI>
0

>  <Rbt.Current_Directory>
/home/malgorzata/Desktop/rDOCK_IFD/Wyniki/3_COX2

>  <Rbt.Executable>
rbdock ($Id: //depot/dev/client3/rdock/2013.1/src/exe/rbdock.cxx#4 $)

>  <Rbt.Library>
libRbt.so (2013.1, Build901 2013/11/27)

>  <Rbt.Parameter_File>
/home/malgorzata/Desktop/rDock_2013.1_src/data/scripts/soft_docking.prm

>  <Rbt.Receptor>
cavity.prm

>  <SCORE>
-39.0646

>  <SCORE.INTER>
-28.7453

>  <SCORE.INTER.CONST>
1

>  <SCORE.INTER.POLAR>
-1.67165

>  <SCORE.INTER.REPUL>
0.00835228

>  <SCORE.INTER.ROT>
5

>  <SCORE.INTER.VDW>
-33.5035

>  <SCORE.INTER.norm>
-1.10559

>  <SCORE.INTRA>
0.0684409

>  <SCORE.INTRA.DIHEDRAL>
-2.28738

>  <SCORE.INTRA.DIHEDRAL.0>
18.1022

>  <SCORE.INTRA.POLAR>
0

>  <SCORE.INTRA.POLAR.0>
0

>  <SCORE.INTRA.REPUL>
0

>  <SCORE.INTRA.REPUL.0>
0

>  <SCORE.INTRA.VDW>
0.525917

>  <SCORE.INTRA.VDW.0>
-2.81782

>  <SCORE.INTRA.norm>
0.00263234

>  <SCORE.RESTR>
1.55586

>  <SCORE.RESTR.CAVITY>
0.311173

>  <SCORE.RESTR.norm>
0.059841

>  <SCORE.SYSTEM>
-11.9436

>  <SCORE.SYSTEM.CONST>
0

>  <SCORE.SYSTEM.DIHEDRAL>
6.1742

>  <SCORE.SYSTEM.POLAR>
-2.58181

>  <SCORE.SYSTEM.VDW>
-6.25251

>  <SCORE.SYSTEM.norm>
-0.459368

>  <SCORE.heavy>
26

>  <SCORE.norm>
-1.50248

$$$$
S58.pdb
  rDOCK(R)          3D
libRbt.so/2013.1/901 2013/11/27
 28 30  0  0  0  0  0  0  0  0999 V2000
   26.7320   22.2363   16.0477 C   0  0  0  0  0  0
   25.5007   22.4685   15.5145 C   0  0  0  0  0  0
   26.5057   21.9150   17.4868 C   0  0  0  0  0  0
   27.5226   21.6701   18.5612 C   0  0  0  0  0  0
   23.1997   22.1139   16.3600 C   0  0  0  0  0  0
   22.4861   23.0929   15.6571 C   0  0  0  0  0  0
   21.1267   22.9233   15.4406 C   0  0  0  0  0  0
   20.4811   21.7639   15.9286 C   0  0  0  0  0  0
   21.2003   20.7833   16.6322 C   0  0  0  0  0  0
   22.5684   20.9626   16.8508 C   0  0  0  0  0  0
   25.2543   22.8859   14.1003 C   0  0  0  0  0  0
   24.2661   22.2153   13.3356 C   0  0  0  0  0  0
   23.9167   22.6908   12.0580 C   0  0  0  0  0  0
   24.5396   23.8257   11.5459 C   0  0  0  0  0  0
   25.5371   24.4743   12.2822 C   0  0  0  0  0  0
   25.8975   24.0050   13.5674 C   0  0  0  0  0  0
   24.5514   22.2972   16.4965 N   0  0  0  0  0  0
   25.2198   21.9403   17.7087 N   0  0  0  0  0  0
   18.1403   20.2757   16.7371 N   0  0  0  0  0  0
   18.4928   21.1638   14.2695 O   0  0  0  0  0  0
   18.0324   22.7674   15.9139 O   0  0  0  0  0  0
   23.9255   24.5624    9.9685 Br  0  0  0  0  0  0
   28.7396   22.0882   18.1321 F   0  0  0  0  0  0
   27.5327   20.3696   18.8933 F   0  0  0  0  0  0
   27.1721   22.3916   19.6317 F   0  0  0  0  0  0
   18.6968   21.5249   15.6368 S   0  0  0  0  0  0
   17.2637   19.8653   16.6011 H   0  0  0  0  0  0
   18.7075   19.9879   17.4845 H   0  0  0  0  0  0
  1  3  1  0  0  0
  2  1  2  0  0  0
  2 17  1  0  0  0
  3 18  2  0  0  0
  3  4  1  0  0  0
  4 23  1  0  0  0
  4 25  1  0  0  0
  5 17  1  0  0  0
  5  6  2  0  0  0
  7  6  1  0  0  0
  8  7  2  0  0  0
  9 10  2  0  0  0
  9  8  1  0  0  0
 10  5  1  0  0  0
 11  2  1  0  0  0
 12 11  1  0  0  0
 13 12  2  0  0  0
 14 15  2  0  0  0
 14 13  1  0  0  0
 15 16  1  0  0  0
 16 11  2  0  0  0
 17 18  1  0  0  0
 19 28  1  0  0  0
 20 26  2  0  0  0
 22 14  1  0  0  0
 24  4  1  0  0  0
 26  8  1  0  0  0
 26 19  1  0  0  0
 26 21  2  0  0  0
 27 19  1  0  0  0
M  END
>  <CHROM.0>
61.78057372,-170.63299068,74.71859253,-81.50736607,-72.29831699,-11.70405300
-48.58472323

>  <CHROM.1>
14.44157817,-56.68210084,132.16980934,-163.90161953,-166.43874754,23.59443514
22.54541384,14.87319600,-0.89734375,-0.14138255,-1.19236584

>  <FORMUL>
      S58    C16 H11 Br1 F3 N3 O2 S1

>  <HET>
 S58  A 701      28

>  <HETNAM>
     S58 1-PHENYLSULFONAMIDE-3-TRIFLUOROMETHYL-5-PARABROMOPHENYL
   2 S58 PYRAZOLE

>  <Name>
S58.pdb

>  <RI>
0

>  <Rbt.Current_Directory>
/home/malgorzata/Desktop/rDOCK_IFD/Wyniki/3_COX2

>  <Rbt.Executable>
rbdock ($Id: //depot/dev/client3/rdock/2013.1/src/exe/rbdock.cxx#4 $)

>  <Rbt.Library>
libRbt.so (2013.1, Build901 2013/11/27)

>  <Rbt.Parameter_File>
/home/malgorzata/Desktop/rDock_2013.1_src/data/scripts/soft_docking.prm

>  <Rbt.Receptor>
cavity.prm

>  <SCORE>
-47.2064

>  <SCORE.INTER>
-37.0918

>  <SCORE.INTER.CONST>
1

>  <SCORE.INTER.POLAR>
-1.85709

>  <SCORE.INTER.REPUL>
0

>  <SCORE.INTER.ROT>
5

>  <SCORE.INTER.VDW>
-41.1776

>  <SCORE.INTER.norm>
-1.42661

>  <SCORE.INTRA>
-0.233947

>  <SCORE.INTRA.DIHEDRAL>
0.0639236

>  <SCORE.INTRA.DIHEDRAL.0>
18.1022

>  <SCORE.INTRA.POLAR>
0

>  <SCORE.INTRA.POLAR.0>
0

>  <SCORE.INTRA.REPUL>
0

>  <SCORE.INTRA.REPUL.0>
0

>  <SCORE.INTRA.VDW>
-0.246732

>  <SCORE.INTRA.VDW.0>
-2.81782

>  <SCORE.INTRA.norm>
-0.00899796

>  <SCORE.RESTR>
1.29838

>  <SCORE.RESTR.CAVITY>
0.259675

>  <SCORE.RESTR.norm>
0.0499375

>  <SCORE.SYSTEM>
-11.1791

>  <SCORE.SYSTEM.CONST>
0

>  <SCORE.SYSTEM.DIHEDRAL>
6.76373

>  <SCORE.SYSTEM.POLAR>
-2.61215

>  <SCORE.SYSTEM.REPUL>
0.0304266

>  <SCORE.SYSTEM.VDW>
-5.83178

>  <SCORE.SYSTEM.norm>
-0.429966

>  <SCORE.heavy>
26

>  <SCORE.norm>
-1.81563

$$$$
