@<TRIPOS>MOLECULE
pose5.pdb
 37 39 0 0 0
SMALL
GASTEIGER

@<TRIPOS>ATOM
      1  C1        22.9970   28.3510   27.6890 C.ar    1  LIG1       -0.0039
      2  C2        24.1570   29.0580   27.7850 C.ar    1  LIG1        0.0752
      3  C3        23.3790   26.9130   27.8000 C.ar    1  LIG1        0.1662
      4  C4        22.5060   25.7010   27.6650 C.3     1  LIG1        0.4360
      5  C5        26.4690   28.4320   28.4150 C.ar    1  LIG1        0.0661
      6  C6        26.5940   29.1890   29.5870 C.ar    1  LIG1       -0.0344
      7  C7        27.8530   29.4230   30.1180 C.ar    1  LIG1       -0.0334
      8  C8        28.9930   28.8910   29.4730 C.ar    1  LIG1        0.1051
      9  C9        28.8650   28.1310   28.2980 C.ar    1  LIG1       -0.0334
     10  C10       27.5930   27.9040   27.7650 C.ar    1  LIG1       -0.0344
     11  C11       24.2560   30.5440   27.6660 C.ar    1  LIG1        0.0005
     12  C12       25.3310   31.2260   28.2900 C.ar    1  LIG1       -0.0515
     13  C13       25.5240   32.6020   28.0640 C.ar    1  LIG1       -0.0471
     14  C14       24.6590   33.2940   27.2210 C.ar    1  LIG1        0.0179
     15  C15       23.5780   32.6340   26.6250 C.ar    1  LIG1       -0.0471
     16  C16       23.3740   31.2520   26.8460 C.ar    1  LIG1       -0.0515
     17  N1        25.2010   28.1780   27.9620 N.ar    1  LIG1       -0.2316
     18  N2        24.6700   26.8500   27.9780 N.ar    1  LIG1       -0.1618
     19  N3        30.6310   30.7490   30.9600 N.3     1  LIG1       -0.2035
     20  O1        31.6170   29.1250   29.1190 O.2     1  LIG1       -0.1533
     21  O2        30.9180   28.1440   31.1280 O.2     1  LIG1       -0.1533
     22 Br1        25.0440   35.0400   26.7640 Br      1  LIG1       -0.0503
     23  F1        21.3990   25.8560   28.4340 F       1  LIG1       -0.1644
     24  F2        23.1960   24.6010   28.0050 F       1  LIG1       -0.1644
     25  F3        22.1310   25.6030   26.3850 F       1  LIG1       -0.1644
     26  S1        30.6530   29.1810   30.1710 S.O2    1  LIG1        0.0559
     27  H1        29.9760   31.4200   30.6870 H       1  LIG1        0.1442
     28  H2        31.2730   30.9510   31.6750 H       1  LIG1        0.1442
     29 H          22.0462   28.7326   27.5647 H       1  LIG1        0.0660
     30 H          25.7549   29.5697   30.0518 H       1  LIG1        0.0639
     31 H          27.9574   29.9822   30.9790 H       1  LIG1        0.0638
     32 H          29.7015   27.7445   27.8334 H       1  LIG1        0.0638
     33 H          27.4823   27.3522   26.9000 H       1  LIG1        0.0639
     34 H          25.9742   30.7119   28.9121 H       1  LIG1        0.0624
     35 H          26.3052   33.0967   28.5223 H       1  LIG1        0.0629
     36 H          22.9262   33.1587   26.0210 H       1  LIG1        0.0629
     37 H          22.5769   30.7686   26.4033 H       1  LIG1        0.0624
@<TRIPOS>BOND
     1     1     3   ar
     2     1     2   ar
     3     2    17   ar
     4     2    11    1
     5     3    18   ar
     6     3     4    1
     7     4    23    1
     8     4    25    1
     9     4    24    1
    10     5    17    1
    11     5     6   ar
    12     5    10   ar
    13     6     7   ar
    14     7     8   ar
    15     8     9   ar
    16     8    26    1
    17     9    10   ar
    18    11    12   ar
    19    11    16   ar
    20    12    13   ar
    21    13    14   ar
    22    14    15   ar
    23    14    22    1
    24    15    16   ar
    25    17    18   ar
    26    19    28    1
    27    19    26    1
    28    19    27    1
    29    20    26    2
    30    21    26    2
    31     1    29    1
    32     6    30    1
    33     7    31    1
    34     9    32    1
    35    10    33    1
    36    12    34    1
    37    13    35    1
    38    15    36    1
    39    16    37    1
