@<TRIPOS>MOLECULE
pose4.pdb
 37 39 0 0 0
SMALL
GASTEIGER

@<TRIPOS>ATOM
      1  C1        24.8110   30.7790   26.4930 C.ar    1  LIG1       -0.0039
      2  C2        24.9630   29.7240   27.3400 C.ar    1  LIG1        0.0752
      3  C3        23.5100   30.5660   25.7960 C.ar    1  LIG1        0.1662
      4  C4        22.8980   31.3750   24.6920 C.3     1  LIG1        0.4360
      5  C5        23.4330   27.9270   28.0900 C.ar    1  LIG1        0.0661
      6  C6        22.9450   28.3370   29.3380 C.ar    1  LIG1       -0.0344
      7  C7        22.4430   27.3910   30.2190 C.ar    1  LIG1       -0.0334
      8  C8        22.4270   26.0270   29.8450 C.ar    1  LIG1        0.1051
      9  C9        22.9160   25.6200   28.5930 C.ar    1  LIG1       -0.0334
     10  C10       23.4240   26.5770   27.7120 C.ar    1  LIG1       -0.0344
     11  C11       26.1630   29.4950   28.2030 C.ar    1  LIG1        0.0005
     12  C12       27.3380   30.2570   27.9820 C.ar    1  LIG1       -0.0515
     13  C13       28.4210   30.1630   28.8760 C.ar    1  LIG1       -0.0471
     14  C14       28.3360   29.3220   29.9820 C.ar    1  LIG1        0.0179
     15  C15       27.1910   28.5440   30.1890 C.ar    1  LIG1       -0.0471
     16  C16       26.0960   28.6300   29.2970 C.ar    1  LIG1       -0.0515
     17  N1        23.8630   28.9050   27.2310 N.ar    1  LIG1       -0.2316
     18  N2        22.9750   29.4730   26.2650 N.ar    1  LIG1       -0.1618
     19  N3        22.2080   25.2510   32.6200 N.3     1  LIG1       -0.2035
     20  O1        22.2810   23.4950   30.6410 O.2     1  LIG1       -0.1533
     21  O2        20.3270   24.7700   30.8510 O.2     1  LIG1       -0.1533
     22 Br1        29.6690   29.3660   31.2590 Br      1  LIG1       -0.0503
     23  F1        22.9390   30.6640   23.5370 F       1  LIG1       -0.1644
     24  F2        23.5380   32.5490   24.5750 F       1  LIG1       -0.1644
     25  F3        21.6190   31.6050   25.0110 F       1  LIG1       -0.1644
     26  S1        21.7560   24.7770   30.9910 S.O2    1  LIG1        0.0559
     27  H1        21.5730   25.1310   33.3530 H       1  LIG1        0.1442
     28  H2        23.0950   25.6330   32.7940 H       1  LIG1        0.1442
     29 H          25.4641   31.5669   26.3602 H       1  LIG1        0.0660
     30 H          22.9591   29.3352   29.5994 H       1  LIG1        0.0639
     31 H          22.0833   27.6805   31.1419 H       1  LIG1        0.0638
     32 H          22.9001   24.6231   28.3266 H       1  LIG1        0.0638
     33 H          23.7899   26.2927   26.7899 H       1  LIG1        0.0639
     34 H          27.3994   30.8823   27.1633 H       1  LIG1        0.0624
     35 H          29.2764   30.7165   28.7119 H       1  LIG1        0.0629
     36 H          27.1452   27.9038   30.9971 H       1  LIG1        0.0629
     37 H          25.2525   28.0566   29.4541 H       1  LIG1        0.0624
@<TRIPOS>BOND
     1     1     3   ar
     2     1     2   ar
     3     2    17   ar
     4     2    11    1
     5     3    18   ar
     6     3     4    1
     7     4    23    1
     8     4    25    1
     9     4    24    1
    10     5    17    1
    11     5     6   ar
    12     5    10   ar
    13     6     7   ar
    14     7     8   ar
    15     8     9   ar
    16     8    26    1
    17     9    10   ar
    18    11    12   ar
    19    11    16   ar
    20    12    13   ar
    21    13    14   ar
    22    14    15   ar
    23    14    22    1
    24    15    16   ar
    25    17    18   ar
    26    19    28    1
    27    19    26    1
    28    19    27    1
    29    20    26    2
    30    21    26    2
    31     1    29    1
    32     6    30    1
    33     7    31    1
    34     9    32    1
    35    10    33    1
    36    12    34    1
    37    13    35    1
    38    15    36    1
    39    16    37    1
