@<TRIPOS>MOLECULE
pose1.pdb
 37 39 0 0 0
SMALL
GASTEIGER

@<TRIPOS>ATOM
      1  C1        24.8210   32.1010   26.3940 C.ar    1  LIG1       -0.0039
      2  C2        25.4320   31.0740   27.0470 C.ar    1  LIG1        0.0752
      3  C3        25.5810   33.3320   26.7570 C.ar    1  LIG1        0.1662
      4  C4        25.2840   34.7560   26.3930 C.3     1  LIG1        0.4360
      5  C5        27.5690   30.8930   28.2860 C.ar    1  LIG1        0.0661
      6  C6        28.8260   31.5060   28.2050 C.ar    1  LIG1       -0.0344
      7  C7        29.9250   30.8870   28.7800 C.ar    1  LIG1       -0.0334
      8  C8        29.7630   29.6500   29.4440 C.ar    1  LIG1        0.1051
      9  C9        28.5010   29.0380   29.5250 C.ar    1  LIG1       -0.0334
     10  C10       27.3980   29.6640   28.9390 C.ar    1  LIG1       -0.0344
     11  C11       24.9650   29.6540   27.0180 C.ar    1  LIG1        0.0005
     12  C12       25.9090   28.6110   26.8450 C.ar    1  LIG1       -0.0515
     13  C13       25.5090   27.2670   26.9650 C.ar    1  LIG1       -0.0471
     14  C14       24.1840   26.9610   27.2620 C.ar    1  LIG1        0.0179
     15  C15       23.2400   27.9850   27.4040 C.ar    1  LIG1       -0.0471
     16  C16       23.6300   29.3400   27.2840 C.ar    1  LIG1       -0.0515
     17  N1        26.5020   31.5710   27.7550 N.ar    1  LIG1       -0.2316
     18  N2        26.5680   32.9820   27.5370 N.ar    1  LIG1       -0.1618
     19  N3        31.5410   27.3770   29.3010 N.3     1  LIG1       -0.2035
     20  O1        30.8960   28.5510   31.5830 O.2     1  LIG1       -0.1533
     21  O2        32.3130   29.7410   30.1450 O.2     1  LIG1       -0.1533
     22 Br1        23.7170   25.2130   27.6280 Br      1  LIG1       -0.0503
     23  F1        24.0410   34.8320   25.8540 F       1  LIG1       -0.1644
     24  F2        26.2210   35.2170   25.5500 F       1  LIG1       -0.1644
     25  F3        25.3110   35.4820   27.5160 F       1  LIG1       -0.1644
     26  S1        31.2010   28.8350   30.2160 S.O2    1  LIG1        0.0559
     27  H1        31.2700   26.5070   29.6560 H       1  LIG1        0.1442
     28  H2        31.9990   27.4330   28.4340 H       1  LIG1        0.1442
     29 H          23.9986   32.0399   25.7736 H       1  LIG1        0.0660
     30 H          28.9330   32.4112   27.7211 H       1  LIG1        0.0639
     31 H          30.8567   31.3272   28.7235 H       1  LIG1        0.0638
     32 H          28.3899   28.1352   30.0124 H       1  LIG1        0.0638
     33 H          26.4650   29.2255   28.9864 H       1  LIG1        0.0639
     34 H          26.8926   28.8378   26.6304 H       1  LIG1        0.0624
     35 H          26.1972   26.5094   26.8330 H       1  LIG1        0.0629
     36 H          22.2538   27.7503   27.5973 H       1  LIG1        0.0629
     37 H          22.9319   30.0923   27.3924 H       1  LIG1        0.0624
@<TRIPOS>BOND
     1     1     3   ar
     2     1     2   ar
     3     2    17   ar
     4     2    11    1
     5     3    18   ar
     6     3     4    1
     7     4    23    1
     8     4    25    1
     9     4    24    1
    10     5    17    1
    11     5     6   ar
    12     5    10   ar
    13     6     7   ar
    14     7     8   ar
    15     8     9   ar
    16     8    26    1
    17     9    10   ar
    18    11    12   ar
    19    11    16   ar
    20    12    13   ar
    21    13    14   ar
    22    14    15   ar
    23    14    22    1
    24    15    16   ar
    25    17    18   ar
    26    19    28    1
    27    19    26    1
    28    19    27    1
    29    20    26    2
    30    21    26    2
    31     1    29    1
    32     6    30    1
    33     7    31    1
    34     9    32    1
    35    10    33    1
    36    12    34    1
    37    13    35    1
    38    15    36    1
    39    16    37    1
