@<TRIPOS>MOLECULE
pose2.pdb
 37 39 0 0 0
SMALL
GASTEIGER

@<TRIPOS>ATOM
      1  C1        22.6180   29.5580   27.3660 C.ar    1  LIG1       -0.0039
      2  C2        23.9020   30.0050   27.4410 C.ar    1  LIG1        0.0752
      3  C3        22.6780   28.0850   27.5950 C.ar    1  LIG1        0.1662
      4  C4        21.5650   27.0820   27.5270 C.3     1  LIG1        0.4360
      5  C5        26.0170   28.9500   28.1830 C.ar    1  LIG1        0.0661
      6  C6        26.3550   29.9450   29.1080 C.ar    1  LIG1       -0.0344
      7  C7        27.6290   29.9620   29.6570 C.ar    1  LIG1       -0.0334
      8  C8        28.5660   28.9730   29.2780 C.ar    1  LIG1        0.1051
      9  C9        28.2220   27.9760   28.3500 C.ar    1  LIG1       -0.0334
     10  C10       26.9390   27.9670   27.7980 C.ar    1  LIG1       -0.0344
     11  C11       24.3210   31.4220   27.2140 C.ar    1  LIG1        0.0005
     12  C12       24.9250   31.7830   25.9830 C.ar    1  LIG1       -0.0515
     13  C13       25.1880   33.1350   25.6930 C.ar    1  LIG1       -0.0471
     14  C14       24.8490   34.1200   26.6160 C.ar    1  LIG1        0.0179
     15  C15       24.2810   33.7690   27.8450 C.ar    1  LIG1       -0.0471
     16  C16       24.0130   32.4130   28.1480 C.ar    1  LIG1       -0.0515
     17  N1        24.7280   28.9390   27.7140 N.ar    1  LIG1       -0.2316
     18  N2        23.9230   27.7620   27.8140 N.ar    1  LIG1       -0.1618
     19  N3        31.1260   27.6340   29.3080 N.3     1  LIG1       -0.2035
     20  O1        30.1300   28.8700   31.4250 O.2     1  LIG1       -0.1533
     21  O2        30.8670   30.2240   29.6610 O.2     1  LIG1       -0.1533
     22 Br1        25.0000   35.8980   26.1400 Br      1  LIG1       -0.0503
     23  F1        20.4590   27.5970   28.1210 F       1  LIG1       -0.1644
     24  F2        21.9500   25.9330   28.1040 F       1  LIG1       -0.1644
     25  F3        21.2950   26.8550   26.2370 F       1  LIG1       -0.1644
     26  S1        30.2380   28.9790   30.0050 S.O2    1  LIG1        0.0559
     27  H1        31.9830   27.3660   29.6950 H       1  LIG1        0.1442
     28  H2        30.7620   27.1500   28.5360 H       1  LIG1        0.1442
     29 H          21.7738   30.1239   27.1869 H       1  LIG1        0.0660
     30 H          25.6621   30.6600   29.3793 H       1  LIG1        0.0639
     31 H          27.8913   30.6919   30.3378 H       1  LIG1        0.0638
     32 H          28.9108   27.2570   28.0787 H       1  LIG1        0.0638
     33 H          26.6722   27.2430   27.1127 H       1  LIG1        0.0639
     34 H          25.1725   31.0523   25.2976 H       1  LIG1        0.0624
     35 H          25.6312   33.3953   24.7981 H       1  LIG1        0.0629
     36 H          24.0561   34.5030   28.5347 H       1  LIG1        0.0629
     37 H          23.5919   32.1578   29.0550 H       1  LIG1        0.0624
@<TRIPOS>BOND
     1     1     3   ar
     2     1     2   ar
     3     2    17   ar
     4     2    11    1
     5     3    18   ar
     6     3     4    1
     7     4    23    1
     8     4    25    1
     9     4    24    1
    10     5    17    1
    11     5     6   ar
    12     5    10   ar
    13     6     7   ar
    14     7     8   ar
    15     8     9   ar
    16     8    26    1
    17     9    10   ar
    18    11    12   ar
    19    11    16   ar
    20    12    13   ar
    21    13    14   ar
    22    14    15   ar
    23    14    22    1
    24    15    16   ar
    25    17    18   ar
    26    19    28    1
    27    19    26    1
    28    19    27    1
    29    20    26    2
    30    21    26    2
    31     1    29    1
    32     6    30    1
    33     7    31    1
    34     9    32    1
    35    10    33    1
    36    12    34    1
    37    13    35    1
    38    15    36    1
    39    16    37    1
