@<TRIPOS>MOLECULE
pose7.pdb
 37 39 0 0 0
SMALL
GASTEIGER

@<TRIPOS>ATOM
      1  C1        22.2880   28.4950   26.2570 C.ar    1  LIG1       -0.0039
      2  C2        22.9750   28.0900   27.3610 C.ar    1  LIG1        0.0752
      3  C3        23.0110   29.6920   25.7370 C.ar    1  LIG1        0.1662
      4  C4        22.6340   30.5890   24.5960 C.3     1  LIG1        0.4360
      5  C5        25.1760   28.7180   28.3060 C.ar    1  LIG1        0.0661
      6  C6        26.4150   28.7530   27.6530 C.ar    1  LIG1       -0.0344
      7  C7        27.5800   28.6120   28.3920 C.ar    1  LIG1       -0.0334
      8  C8        27.5030   28.4400   29.7930 C.ar    1  LIG1        0.1051
      9  C9        26.2590   28.4070   30.4450 C.ar    1  LIG1       -0.0334
     10  C10       25.0880   28.5450   29.6950 C.ar    1  LIG1       -0.0344
     11  C11       22.5690   26.9520   28.2410 C.ar    1  LIG1        0.0005
     12  C12       21.6220   27.1700   29.2750 C.ar    1  LIG1       -0.0515
     13  C13       21.1170   26.0840   30.0130 C.ar    1  LIG1       -0.0471
     14  C14       21.5440   24.7910   29.7240 C.ar    1  LIG1        0.0179
     15  C15       22.5000   24.5710   28.7260 C.ar    1  LIG1       -0.0471
     16  C16       23.0160   25.6560   27.9780 C.ar    1  LIG1       -0.0515
     17  N1        24.0560   28.9220   27.5430 N.ar    1  LIG1       -0.2316
     18  N2        24.0490   29.9000   26.5000 N.ar    1  LIG1       -0.1618
     19  N3        30.3860   28.6090   29.7130 N.3     1  LIG1       -0.2035
     20  O1        29.0910   26.9460   31.3130 O.2     1  LIG1       -0.1533
     21  O2        28.9790   29.2250   31.8440 O.2     1  LIG1       -0.1533
     22 Br1        20.7210   23.3590   30.5480 Br      1  LIG1       -0.0503
     23  F1        21.8690   31.6080   25.0590 F       1  LIG1       -0.1644
     24  F2        21.9990   29.8810   23.6480 F       1  LIG1       -0.1644
     25  F3        23.7610   31.0950   24.0810 F       1  LIG1       -0.1644
     26  S1        29.0300   28.2680   30.7750 S.O2    1  LIG1        0.0559
     27  H1        30.8150   29.4860   29.7430 H       1  LIG1        0.1442
     28  H2        30.7130   27.9210   29.0950 H       1  LIG1        0.1442
     29 H          21.4394   28.0618   25.8605 H       1  LIG1        0.0660
     30 H          26.4604   28.8827   26.6302 H       1  LIG1        0.0639
     31 H          28.4983   28.6325   27.9216 H       1  LIG1        0.0638
     32 H          26.2104   28.2820   31.4683 H       1  LIG1        0.0638
     33 H          24.1666   28.5198   30.1591 H       1  LIG1        0.0639
     34 H          21.3027   28.1283   29.4863 H       1  LIG1        0.0624
     35 H          20.4313   26.2456   30.7672 H       1  LIG1        0.0629
     36 H          22.8306   23.6123   28.5344 H       1  LIG1        0.0629
     37 H          23.7195   25.4898   27.2415 H       1  LIG1        0.0624
@<TRIPOS>BOND
     1     1     3   ar
     2     1     2   ar
     3     2    17   ar
     4     2    11    1
     5     3    18   ar
     6     3     4    1
     7     4    23    1
     8     4    25    1
     9     4    24    1
    10     5    17    1
    11     5     6   ar
    12     5    10   ar
    13     6     7   ar
    14     7     8   ar
    15     8     9   ar
    16     8    26    1
    17     9    10   ar
    18    11    12   ar
    19    11    16   ar
    20    12    13   ar
    21    13    14   ar
    22    14    15   ar
    23    14    22    1
    24    15    16   ar
    25    17    18   ar
    26    19    28    1
    27    19    26    1
    28    19    27    1
    29    20    26    2
    30    21    26    2
    31     1    29    1
    32     6    30    1
    33     7    31    1
    34     9    32    1
    35    10    33    1
    36    12    34    1
    37    13    35    1
    38    15    36    1
    39    16    37    1
