@<TRIPOS>MOLECULE
pose9.pdb
 37 39 0 0 0
SMALL
GASTEIGER

@<TRIPOS>ATOM
      1  C1        25.4070   31.2670   29.5070 C.ar    1  LIG1       -0.0039
      2  C2        26.5470   30.8050   28.9220 C.ar    1  LIG1        0.0752
      3  C3        25.1710   30.3990   30.6960 C.ar    1  LIG1        0.1662
      4  C4        24.0080   30.4050   31.6420 C.3     1  LIG1        0.4360
      5  C5        28.2820   29.1920   29.6450 C.ar    1  LIG1        0.0661
      6  C6        28.5230   28.1800   28.7070 C.ar    1  LIG1       -0.0344
      7  C7        29.7910   27.6270   28.6100 C.ar    1  LIG1       -0.0334
      8  C8        30.8230   28.0930   29.4560 C.ar    1  LIG1        0.1051
      9  C9        30.5780   29.1090   30.3950 C.ar    1  LIG1       -0.0334
     10  C10       29.2980   29.6600   30.4910 C.ar    1  LIG1       -0.0344
     11  C11       27.1300   31.3460   27.6560 C.ar    1  LIG1        0.0005
     12  C12       27.0240   32.7320   27.3740 C.ar    1  LIG1       -0.0515
     13  C13       27.6940   33.2820   26.2660 C.ar    1  LIG1       -0.0471
     14  C14       28.4680   32.4640   25.4470 C.ar    1  LIG1        0.0179
     15  C15       28.5520   31.0910   25.7020 C.ar    1  LIG1       -0.0471
     16  C16       27.8820   30.5260   26.8120 C.ar    1  LIG1       -0.0515
     17  N1        27.0300   29.7500   29.6620 N.ar    1  LIG1       -0.2316
     18  N2        26.1490   29.5370   30.7670 N.ar    1  LIG1       -0.1618
     19  N3        33.4740   28.4880   28.3770 N.3     1  LIG1       -0.2035
     20  O1        32.4090   26.0900   28.7210 O.2     1  LIG1       -0.1533
     21  O2        33.0300   27.2590   30.6550 O.2     1  LIG1       -0.1533
     22 Br1        29.5110   33.2270   24.1290 Br      1  LIG1       -0.0503
     23  F1        24.2690   29.5730   32.6810 F       1  LIG1       -0.1644
     24  F2        22.8880   30.0510   30.9920 F       1  LIG1       -0.1644
     25  F3        23.8660   31.6500   32.1120 F       1  LIG1       -0.1644
     26  S1        32.4970   27.3820   29.3270 S.O2    1  LIG1        0.0559
     27  H1        33.6530   28.2910   27.4360 H       1  LIG1        0.1442
     28  H2        33.8370   29.3030   28.7860 H       1  LIG1        0.1442
     29 H          24.8244   32.0580   29.1911 H       1  LIG1        0.0660
     30 H          27.7628   27.8485   28.0928 H       1  LIG1        0.0639
     31 H          29.9801   26.8795   27.9241 H       1  LIG1        0.0638
     32 H          31.3369   29.4452   31.0083 H       1  LIG1        0.0638
     33 H          29.1017   30.4046   31.1781 H       1  LIG1        0.0639
     34 H          26.4536   33.3388   27.9835 H       1  LIG1        0.0624
     35 H          27.6120   34.2900   26.0605 H       1  LIG1        0.0629
     36 H          29.1066   30.4864   25.0760 H       1  LIG1        0.0629
     37 H          27.9485   29.5130   26.9973 H       1  LIG1        0.0624
@<TRIPOS>BOND
     1     1     3   ar
     2     1     2   ar
     3     2    17   ar
     4     2    11    1
     5     3    18   ar
     6     3     4    1
     7     4    23    1
     8     4    25    1
     9     4    24    1
    10     5    17    1
    11     5     6   ar
    12     5    10   ar
    13     6     7   ar
    14     7     8   ar
    15     8     9   ar
    16     8    26    1
    17     9    10   ar
    18    11    12   ar
    19    11    16   ar
    20    12    13   ar
    21    13    14   ar
    22    14    15   ar
    23    14    22    1
    24    15    16   ar
    25    17    18   ar
    26    19    28    1
    27    19    26    1
    28    19    27    1
    29    20    26    2
    30    21    26    2
    31     1    29    1
    32     6    30    1
    33     7    31    1
    34     9    32    1
    35    10    33    1
    36    12    34    1
    37    13    35    1
    38    15    36    1
    39    16    37    1
