@<TRIPOS>MOLECULE
pose3.pdb
 37 39 0 0 0
SMALL
GASTEIGER

@<TRIPOS>ATOM
      1  C1        22.8510   31.8580   26.9490 C.ar    1  LIG1       -0.0039
      2  C2        23.3440   30.8420   27.7110 C.ar    1  LIG1        0.0752
      3  C3        23.7810   33.0080   27.1420 C.ar    1  LIG1        0.1662
      4  C4        23.6610   34.4060   26.6120 C.3     1  LIG1        0.4360
      5  C5        25.4830   30.5210   28.9180 C.ar    1  LIG1        0.0661
      6  C6        26.4740   29.9930   28.0810 C.ar    1  LIG1       -0.0344
      7  C7        27.5260   29.2790   28.6350 C.ar    1  LIG1       -0.0334
      8  C8        27.5850   29.0960   30.0360 C.ar    1  LIG1        0.1051
      9  C9        26.5890   29.6270   30.8720 C.ar    1  LIG1       -0.0334
     10  C10       25.5300   30.3420   30.3070 C.ar    1  LIG1       -0.0344
     11  C11       22.6910   29.5060   27.8670 C.ar    1  LIG1        0.0005
     12  C12       21.8420   29.0190   26.8410 C.ar    1  LIG1       -0.0515
     13  C13       21.3410   27.7050   26.9010 C.ar    1  LIG1       -0.0471
     14  C14       21.6850   26.8800   27.9680 C.ar    1  LIG1        0.0179
     15  C15       22.4980   27.3640   28.9990 C.ar    1  LIG1       -0.0471
     16  C16       23.0070   28.6840   28.9500 C.ar    1  LIG1       -0.0515
     17  N1        24.4960   31.2700   28.3290 N.ar    1  LIG1       -0.2316
     18  N2        24.7400   32.6230   27.9380 N.ar    1  LIG1       -0.1618
     19  N3        30.0980   27.7810   29.4870 N.3     1  LIG1       -0.2035
     20  O1        28.4600   26.9980   31.4130 O.2     1  LIG1       -0.1533
     21  O2        29.5990   29.0170   31.7500 O.2     1  LIG1       -0.1533
     22 Br1        21.2010   25.0990   27.9300 Br      1  LIG1       -0.0503
     23  F1        23.2690   35.2340   27.6120 F       1  LIG1       -0.1644
     24  F2        22.8040   34.4320   25.5800 F       1  LIG1       -0.1644
     25  F3        24.8700   34.7890   26.1850 F       1  LIG1       -0.1644
     26  S1        28.9710   28.1700   30.7760 S.O2    1  LIG1        0.0559
     27  H1        29.9390   28.1210   28.5850 H       1  LIG1        0.1442
     28  H2        30.8860   27.2260   29.6720 H       1  LIG1        0.1442
     29 H          22.0053   31.8363   26.3579 H       1  LIG1        0.0660
     30 H          26.4218   30.1341   27.0600 H       1  LIG1        0.0639
     31 H          28.2614   28.8836   28.0284 H       1  LIG1        0.0638
     32 H          26.6390   29.4903   31.8937 H       1  LIG1        0.0638
     33 H          24.7885   30.7351   30.9076 H       1  LIG1        0.0639
     34 H          21.5907   29.6297   26.0480 H       1  LIG1        0.0624
     35 H          20.7199   27.3540   26.1554 H       1  LIG1        0.0629
     36 H          22.7279   26.7550   29.7998 H       1  LIG1        0.0629
     37 H          23.6084   29.0367   29.7109 H       1  LIG1        0.0624
@<TRIPOS>BOND
     1     1     3   ar
     2     1     2   ar
     3     2    17   ar
     4     2    11    1
     5     3    18   ar
     6     3     4    1
     7     4    23    1
     8     4    25    1
     9     4    24    1
    10     5    17    1
    11     5     6   ar
    12     5    10   ar
    13     6     7   ar
    14     7     8   ar
    15     8     9   ar
    16     8    26    1
    17     9    10   ar
    18    11    12   ar
    19    11    16   ar
    20    12    13   ar
    21    13    14   ar
    22    14    15   ar
    23    14    22    1
    24    15    16   ar
    25    17    18   ar
    26    19    28    1
    27    19    26    1
    28    19    27    1
    29    20    26    2
    30    21    26    2
    31     1    29    1
    32     6    30    1
    33     7    31    1
    34     9    32    1
    35    10    33    1
    36    12    34    1
    37    13    35    1
    38    15    36    1
    39    16    37    1
