@<TRIPOS>MOLECULE
pose8.pdb
 37 39 0 0 0
SMALL
GASTEIGER

@<TRIPOS>ATOM
      1  C1        22.6410   29.3790   26.1270 C.ar    1  LIG1       -0.0039
      2  C2        23.4000   28.6510   26.9920 C.ar    1  LIG1        0.0752
      3  C3        23.2920   30.7180   26.0310 C.ar    1  LIG1        0.1662
      4  C4        22.8220   31.9350   25.2910 C.3     1  LIG1        0.4360
      5  C5        25.6260   29.0260   28.0120 C.ar    1  LIG1        0.0661
      6  C6        26.4130   28.0890   27.3310 C.ar    1  LIG1       -0.0344
      7  C7        27.6310   27.7000   27.8690 C.ar    1  LIG1       -0.0334
      8  C8        28.0630   28.2560   29.0950 C.ar    1  LIG1        0.1051
      9  C9        27.2710   29.1970   29.7750 C.ar    1  LIG1       -0.0334
     10  C10       26.0440   29.5810   29.2300 C.ar    1  LIG1       -0.0344
     11  C11       23.0840   27.2580   27.4330 C.ar    1  LIG1        0.0005
     12  C12       23.4450   26.8390   28.7390 C.ar    1  LIG1       -0.0515
     13  C13       23.0230   25.5870   29.2220 C.ar    1  LIG1       -0.0471
     14  C14       22.2440   24.7590   28.4170 C.ar    1  LIG1        0.0179
     15  C15       21.9100   25.1530   27.1170 C.ar    1  LIG1       -0.0471
     16  C16       22.3290   26.4100   26.6200 C.ar    1  LIG1       -0.0515
     17  N1        24.4600   29.4240   27.4110 N.ar    1  LIG1       -0.2316
     18  N2        24.3610   30.7010   26.7790 N.ar    1  LIG1       -0.1618
     19  N3        30.5240   29.2260   30.2550 N.3     1  LIG1       -0.2035
     20  O1        30.3900   26.9980   28.8350 O.2     1  LIG1       -0.1533
     21  O2        29.4120   26.9550   30.9630 O.2     1  LIG1       -0.1533
     22 Br1        21.5200   23.2200   29.1330 Br      1  LIG1       -0.0503
     23  F1        23.4120   33.0370   25.8180 F       1  LIG1       -0.1644
     24  F2        21.4830   32.0140   25.3460 F       1  LIG1       -0.1644
     25  F3        23.2010   31.8120   24.0140 F       1  LIG1       -0.1644
     26  S1        29.6690   27.7620   29.8030 S.O2    1  LIG1        0.0559
     27  H1        30.4090   29.5990   31.1510 H       1  LIG1        0.1442
     28  H2        31.1190   29.6690   29.6120 H       1  LIG1        0.1442
     29 H          21.7879   29.0675   25.6369 H       1  LIG1        0.0660
     30 H          26.0893   27.6909   26.4356 H       1  LIG1        0.0639
     31 H          28.2185   27.0087   27.3771 H       1  LIG1        0.0638
     32 H          27.5932   29.6004   30.6686 H       1  LIG1        0.0638
     33 H          25.4495   30.2678   29.7198 H       1  LIG1        0.0639
     34 H          24.0188   27.4543   29.3366 H       1  LIG1        0.0624
     35 H          23.2901   25.2824   30.1712 H       1  LIG1        0.0629
     36 H          21.3548   24.5233   26.5168 H       1  LIG1        0.0629
     37 H          22.0779   26.6986   25.6615 H       1  LIG1        0.0624
@<TRIPOS>BOND
     1     1     3   ar
     2     1     2   ar
     3     2    17   ar
     4     2    11    1
     5     3    18   ar
     6     3     4    1
     7     4    23    1
     8     4    25    1
     9     4    24    1
    10     5    17    1
    11     5     6   ar
    12     5    10   ar
    13     6     7   ar
    14     7     8   ar
    15     8     9   ar
    16     8    26    1
    17     9    10   ar
    18    11    12   ar
    19    11    16   ar
    20    12    13   ar
    21    13    14   ar
    22    14    15   ar
    23    14    22    1
    24    15    16   ar
    25    17    18   ar
    26    19    28    1
    27    19    26    1
    28    19    27    1
    29    20    26    2
    30    21    26    2
    31     1    29    1
    32     6    30    1
    33     7    31    1
    34     9    32    1
    35    10    33    1
    36    12    34    1
    37    13    35    1
    38    15    36    1
    39    16    37    1
