@<TRIPOS>MOLECULE
pose0.pdb
 37 39 0 0 0
SMALL
GASTEIGER

@<TRIPOS>ATOM
      1  C1        22.3290   29.4310   26.3720 C.ar    1  LIG1       -0.0039
      2  C2        23.1100   28.9170   27.3610 C.ar    1  LIG1        0.0752
      3  C3        23.0540   30.6270   25.8520 C.ar    1  LIG1        0.1662
      4  C4        22.6030   31.6190   24.8220 C.3     1  LIG1        0.4360
      5  C5        25.4340   29.3720   28.0880 C.ar    1  LIG1        0.0661
      6  C6        25.6910   29.9740   29.3270 C.ar    1  LIG1       -0.0344
      7  C7        26.8480   29.6470   30.0180 C.ar    1  LIG1       -0.0334
      8  C8        27.7500   28.7090   29.4650 C.ar    1  LIG1        0.1051
      9  C9        27.4880   28.1060   28.2230 C.ar    1  LIG1       -0.0334
     10  C10       26.3230   28.4440   27.5300 C.ar    1  LIG1       -0.0344
     11  C11       22.7430   27.7390   28.2060 C.ar    1  LIG1        0.0005
     12  C12       22.1420   26.6060   27.6010 C.ar    1  LIG1       -0.0515
     13  C13       21.9280   25.4340   28.3500 C.ar    1  LIG1       -0.0471
     14  C14       22.3120   25.3860   29.6870 C.ar    1  LIG1        0.0179
     15  C15       22.8780   26.5100   30.2980 C.ar    1  LIG1       -0.0471
     16  C16       23.0970   27.6940   29.5560 C.ar    1  LIG1       -0.0515
     17  N1        24.2490   29.6820   27.4720 N.ar    1  LIG1       -0.2316
     18  N2        24.1800   30.7310   26.5030 N.ar    1  LIG1       -0.1618
     19  N3        30.5570   28.0820   29.1960 N.3     1  LIG1       -0.2035
     20  O1        29.0350   27.0550   31.1020 O.2     1  LIG1       -0.1533
     21  O2        29.5680   29.3290   31.2850 O.2     1  LIG1       -0.1533
     22 Br1        22.2240   23.7820   30.5980 Br      1  LIG1       -0.0503
     23  F1        21.9890   30.9650   23.8050 F       1  LIG1       -0.1644
     24  F2        23.6510   32.3370   24.3890 F       1  LIG1       -0.1644
     25  F3        21.7210   32.4410   25.4010 F       1  LIG1       -0.1644
     26  S1        29.2670   28.2620   30.3730 S.O2    1  LIG1        0.0559
     27  H1        30.4000   27.5700   28.3780 H       1  LIG1        0.1442
     28  H2        31.4330   28.4950   29.3570 H       1  LIG1        0.1442
     29 H          21.4194   29.0672   26.0474 H       1  LIG1        0.0660
     30 H          25.0244   30.6555   29.7222 H       1  LIG1        0.0639
     31 H          27.0494   30.0856   30.9302 H       1  LIG1        0.0638
     32 H          28.1496   27.4203   27.8267 H       1  LIG1        0.0638
     33 H          26.1189   28.0136   26.6145 H       1  LIG1        0.0639
     34 H          21.8608   26.6410   26.6087 H       1  LIG1        0.0624
     35 H          21.4872   24.6117   27.9088 H       1  LIG1        0.0629
     36 H          23.1373   26.4750   31.2963 H       1  LIG1        0.0629
     37 H          23.5163   28.5205   30.0100 H       1  LIG1        0.0624
@<TRIPOS>BOND
     1     1     3   ar
     2     1     2   ar
     3     2    17   ar
     4     2    11    1
     5     3    18   ar
     6     3     4    1
     7     4    23    1
     8     4    25    1
     9     4    24    1
    10     5    17    1
    11     5     6   ar
    12     5    10   ar
    13     6     7   ar
    14     7     8   ar
    15     8     9   ar
    16     8    26    1
    17     9    10   ar
    18    11    12   ar
    19    11    16   ar
    20    12    13   ar
    21    13    14   ar
    22    14    15   ar
    23    14    22    1
    24    15    16   ar
    25    17    18   ar
    26    19    28    1
    27    19    26    1
    28    19    27    1
    29    20    26    2
    30    21    26    2
    31     1    29    1
    32     6    30    1
    33     7    31    1
    34     9    32    1
    35    10    33    1
    36    12    34    1
    37    13    35    1
    38    15    36    1
    39    16    37    1
