@<TRIPOS>MOLECULE
pose6.pdb
 37 39 0 0 0
SMALL
GASTEIGER

@<TRIPOS>ATOM
      1  C1        24.8940   32.6180   29.2940 C.ar    1  LIG1       -0.0039
      2  C2        26.0200   32.0350   28.7970 C.ar    1  LIG1        0.0752
      3  C3        24.5430   31.8550   30.5270 C.ar    1  LIG1        0.1662
      4  C4        23.3440   32.0110   31.4130 C.3     1  LIG1        0.4360
      5  C5        27.5970   30.3570   29.7090 C.ar    1  LIG1        0.0661
      6  C6        28.7530   31.1450   29.6510 C.ar    1  LIG1       -0.0344
      7  C7        29.9960   30.5460   29.7890 C.ar    1  LIG1       -0.0334
      8  C8        30.0790   29.1490   29.9880 C.ar    1  LIG1        0.1051
      9  C9        28.9170   28.3610   30.0460 C.ar    1  LIG1       -0.0334
     10  C10       27.6690   28.9700   29.9020 C.ar    1  LIG1       -0.0344
     11  C11       26.6950   32.4420   27.5260 C.ar    1  LIG1        0.0005
     12  C12       26.6990   33.8070   27.1440 C.ar    1  LIG1       -0.0515
     13  C13       27.4550   34.2290   26.0340 C.ar    1  LIG1       -0.0471
     14  C14       28.2060   33.3030   25.3140 C.ar    1  LIG1        0.0179
     15  C15       28.1820   31.9500   25.6680 C.ar    1  LIG1       -0.0471
     16  C16       27.4240   31.5140   26.7800 C.ar    1  LIG1       -0.0515
     17  N1        26.3900   31.0020   29.6280 N.ar    1  LIG1       -0.2316
     18  N2        25.4490   30.9320   30.7020 N.ar    1  LIG1       -0.1618
     19  N3        31.7520   26.9600   29.1170 N.3     1  LIG1       -0.2035
     20  O1        31.8850   27.9850   31.5530 O.2     1  LIG1       -0.1533
     21  O2        32.7140   29.3050   29.8050 O.2     1  LIG1       -0.1533
     22 Br1        29.3570   33.8970   23.9990 Br      1  LIG1       -0.0503
     23  F1        23.7250   32.5670   32.5910 F       1  LIG1       -0.1644
     24  F2        22.7510   30.8210   31.5950 F       1  LIG1       -0.1644
     25  F3        22.4860   32.8380   30.8040 F       1  LIG1       -0.1644
     26  S1        31.7080   28.3530   30.1840 S.O2    1  LIG1        0.0559
     27  H1        32.2110   26.1450   29.4020 H       1  LIG1        0.1442
     28  H2        31.3140   26.9960   28.2390 H       1  LIG1        0.1442
     29 H          24.3863   33.4244   28.8978 H       1  LIG1        0.0660
     30 H          28.6804   32.1643   29.5066 H       1  LIG1        0.0639
     31 H          30.8550   31.1165   29.7467 H       1  LIG1        0.0638
     32 H          28.9855   27.3419   30.1936 H       1  LIG1        0.0638
     33 H          26.8067   28.4041   29.9373 H       1  LIG1        0.0639
     34 H          26.1462   34.4933   27.6811 H       1  LIG1        0.0624
     35 H          27.4528   35.2224   25.7543 H       1  LIG1        0.0629
     36 H          28.7206   31.2655   25.1145 H       1  LIG1        0.0629
     37 H          27.4100   30.5150   27.0385 H       1  LIG1        0.0624
@<TRIPOS>BOND
     1     1     3   ar
     2     1     2   ar
     3     2    17   ar
     4     2    11    1
     5     3    18   ar
     6     3     4    1
     7     4    23    1
     8     4    25    1
     9     4    24    1
    10     5    17    1
    11     5     6   ar
    12     5    10   ar
    13     6     7   ar
    14     7     8   ar
    15     8     9   ar
    16     8    26    1
    17     9    10   ar
    18    11    12   ar
    19    11    16   ar
    20    12    13   ar
    21    13    14   ar
    22    14    15   ar
    23    14    22    1
    24    15    16   ar
    25    17    18   ar
    26    19    28    1
    27    19    26    1
    28    19    27    1
    29    20    26    2
    30    21    26    2
    31     1    29    1
    32     6    30    1
    33     7    31    1
    34     9    32    1
    35    10    33    1
    36    12    34    1
    37    13    35    1
    38    15    36    1
    39    16    37    1
