HMD.pdb
  rDOCK(R)          3D
libRbt.so/2013.1/901 2013/11/27
 24 26  0  0  0  0  0  0  0  0999 V2000
    3.0559   19.9630   12.8782 Br  0  0  0  0  0  0
   -0.0423   21.2699   17.0459 O   0  0  0  0  0  0
   -3.1038   25.7167   12.0878 O   0  0  0  0  0  0
    1.1205   20.8878   14.6324 N   0  0  0  0  0  0
   -1.8991   22.2679   16.1509 N   0  0  0  0  0  0
   -2.0183   25.2861   10.1062 N   0  0  0  0  0  0
   -0.4953   23.8050   10.8333 N   0  0  0  0  0  0
   -0.4910   24.3530    8.5737 N   0  0  0  0  0  0
    1.6519   21.0424   13.4179 C   0  0  0  0  0  0
    1.0228   22.0357   12.7265 C   0  0  0  0  0  0
    0.0037   22.5330   13.5826 C   0  0  0  0  0  0
    0.1119   21.7725   14.7876 C   0  0  0  0  0  0
   -0.6174   21.7561   16.0631 C   0  0  0  0  0  0
   -2.7152   22.8771   15.0868 C   0  0  0  0  0  0
   -2.0261   24.0331   14.3846 C   0  0  0  0  0  0
   -1.0904   23.5808   13.2671 C   0  0  0  0  0  0
   -1.2439   24.1084   11.9805 C   0  0  0  0  0  0
   -2.2308   25.1250   11.4341 C   0  0  0  0  0  0
   -0.9953   24.4853    9.7855 C   0  0  0  0  0  0
    1.4161   20.2341   15.3066 H   0  0  0  0  0  0
   -2.3204   22.2188   17.0393 H   0  0  0  0  0  0
    0.2740   23.1916   10.8003 H   0  0  0  0  0  0
   -0.8741   24.8616    7.8228 H   0  0  0  0  0  0
    0.2685   23.7457    8.4203 H   0  0  0  0  0  0
  1  9  1  0  0  0
  2 13  2  0  0  0
  3 18  2  0  0  0
  4  9  1  0  0  0
  4 12  1  0  0  0
  4 20  1  0  0  0
  5 13  1  0  0  0
  5 14  1  0  0  0
  5 21  1  0  0  0
  6 18  1  0  0  0
  6 19  2  0  0  0
  7 17  1  0  0  0
  7 19  1  0  0  0
  7 22  1  0  0  0
  8 19  1  0  0  0
  8 23  1  0  0  0
  8 24  1  0  0  0
  9 10  2  0  0  0
 10 11  1  0  0  0
 11 12  2  0  0  0
 11 16  1  0  0  0
 12 13  1  0  0  0
 14 15  1  0  0  0
 15 16  1  0  0  0
 16 17  2  0  0  0
 17 18  1  0  0  0
M  END
>  <CHROM.0>
-75.33243216,81.18233463,149.22921533,75.73584956,126.73592774,-61.11066012

>  <CHROM.1>
0.10315582,22.38246608,13.05499893,-0.63333833,0.65333858,-1.18425322

>  <FORMUL>
      HMD    C11 H10 Br1 N5 O2

>  <HET>
 HMD  A 400      19

>  <HETNAM>
     HMD 4-(5-AMINO-4-OXO-4H-PYRAZOL-3-YL)-2-BROMO-4,5,6,7-TETRA
   2 HMD HYDRO-3AH-PYRROLO[2,3-C]AZEPIN-8-ONE

>  <HETSYN>
     HMD HYMENIALDISINE

>  <Name>
HMD.pdb

>  <RI>
0

>  <Rbt.Current_Directory>
/home/malgorzata/Desktop/rDOCK_IFD/test2/IFD

>  <Rbt.Executable>
rbdock ($Id: //depot/dev/client3/rdock/2013.1/src/exe/rbdock.cxx#4 $)

>  <Rbt.Library>
libRbt.so (2013.1, Build901 2013/11/27)

>  <Rbt.Parameter_File>
/home/malgorzata/Desktop/rDock_2013.1_src/data/scripts/hard_docking.prm

>  <Rbt.Receptor>
cavity.prm

>  <SCORE>
-10.8271

>  <SCORE.INTER>
-9.4291

>  <SCORE.INTER.CONST>
1

>  <SCORE.INTER.POLAR>
-0.801694

>  <SCORE.INTER.REPUL>
0

>  <SCORE.INTER.ROT>
0

>  <SCORE.INTER.VDW>
-12.1033

>  <SCORE.INTER.norm>
-0.496269

>  <SCORE.INTRA>
0

>  <SCORE.INTRA.DIHEDRAL>
0

>  <SCORE.INTRA.DIHEDRAL.0>
0

>  <SCORE.INTRA.POLAR>
0

>  <SCORE.INTRA.POLAR.0>
0

>  <SCORE.INTRA.REPUL>
0

>  <SCORE.INTRA.REPUL.0>
0

>  <SCORE.INTRA.VDW>
0

>  <SCORE.INTRA.VDW.0>
0

>  <SCORE.INTRA.norm>
0

>  <SCORE.RESTR>
0

>  <SCORE.RESTR.CAVITY>
0

>  <SCORE.RESTR.norm>
0

>  <SCORE.SYSTEM>
-1.39798

>  <SCORE.SYSTEM.CONST>
0

>  <SCORE.SYSTEM.DIHEDRAL>
2.02424

>  <SCORE.SYSTEM.POLAR>
-0.395626

>  <SCORE.SYSTEM.VDW>
-1.06497

>  <SCORE.SYSTEM.norm>
-0.073578

>  <SCORE.heavy>
19

>  <SCORE.norm>
-0.569847

$$$$
HMD.pdb
  rDOCK(R)          3D
libRbt.so/2013.1/901 2013/11/27
 24 26  0  0  0  0  0  0  0  0999 V2000
   -6.2265   27.1222   14.5132 Br  0  0  0  0  0  0
   -2.7803   23.0301   14.7467 O   0  0  0  0  0  0
   -0.2076   26.1597    8.6380 O   0  0  0  0  0  0
   -4.1501   25.3079   14.2389 N   0  0  0  0  0  0
   -1.0185   23.6244   13.4097 N   0  0  0  0  0  0
   -1.4616   28.0639    8.3346 N   0  0  0  0  0  0
   -2.9020   27.8337   10.0416 N   0  0  0  0  0  0
   -3.1118   29.7093    8.6834 N   0  0  0  0  0  0
   -4.7887   26.3270   13.6600 C   0  0  0  0  0  0
   -4.2316   26.6380   12.4545 C   0  0  0  0  0  0
   -3.1443   25.7412   12.2749 C   0  0  0  0  0  0
   -3.1388   24.9096   13.4372 C   0  0  0  0  0  0
   -2.2988   23.7976   13.9029 C   0  0  0  0  0  0
   -0.3052   24.4395   12.4116 C   0  0  0  0  0  0
   -1.0633   24.5943   11.1056 C   0  0  0  0  0  0
   -2.0910   25.7218   11.1416 C   0  0  0  0  0  0
   -2.0568   26.7204   10.1623 C   0  0  0  0  0  0
   -1.1305   26.9174    8.9752 C   0  0  0  0  0  0
   -2.5027   28.5818    8.9967 C   0  0  0  0  0  0
   -4.3794   24.9105   15.1099 H   0  0  0  0  0  0
   -0.5194   22.8573   13.7726 H   0  0  0  0  0  0
   -3.6663   28.0356   10.6284 H   0  0  0  0  0  0
   -2.8011   30.2393    7.9142 H   0  0  0  0  0  0
   -3.8771   30.0205    9.2189 H   0  0  0  0  0  0
  1  9  1  0  0  0
  2 13  2  0  0  0
  3 18  2  0  0  0
  4  9  1  0  0  0
  4 12  1  0  0  0
  4 20  1  0  0  0
  5 13  1  0  0  0
  5 14  1  0  0  0
  5 21  1  0  0  0
  6 18  1  0  0  0
  6 19  2  0  0  0
  7 17  1  0  0  0
  7 19  1  0  0  0
  7 22  1  0  0  0
  8 19  1  0  0  0
  8 23  1  0  0  0
  8 24  1  0  0  0
  9 10  2  0  0  0
 10 11  1  0  0  0
 11 12  2  0  0  0
 11 16  1  0  0  0
 12 13  1  0  0  0
 14 15  1  0  0  0
 15 16  1  0  0  0
 16 17  2  0  0  0
 17 18  1  0  0  0
M  END
>  <CHROM.0>
114.39124730,79.69714738,122.73149129,173.34185708,-116.57457866,-61.11066012

>  <CHROM.1>
-3.28913156,26.27675044,12.21959773,2.40278254,-0.62443301,2.30387846

>  <FORMUL>
      HMD    C11 H10 Br1 N5 O2

>  <HET>
 HMD  A 400      19

>  <HETNAM>
     HMD 4-(5-AMINO-4-OXO-4H-PYRAZOL-3-YL)-2-BROMO-4,5,6,7-TETRA
   2 HMD HYDRO-3AH-PYRROLO[2,3-C]AZEPIN-8-ONE

>  <HETSYN>
     HMD HYMENIALDISINE

>  <Name>
HMD.pdb

>  <RI>
0

>  <Rbt.Current_Directory>
/home/malgorzata/Desktop/rDOCK_IFD/test2/IFD

>  <Rbt.Executable>
rbdock ($Id: //depot/dev/client3/rdock/2013.1/src/exe/rbdock.cxx#4 $)

>  <Rbt.Library>
libRbt.so (2013.1, Build901 2013/11/27)

>  <Rbt.Parameter_File>
/home/malgorzata/Desktop/rDock_2013.1_src/data/scripts/hard_docking.prm

>  <Rbt.Receptor>
cavity.prm

>  <SCORE>
-14.1319

>  <SCORE.INTER>
-12.0464

>  <SCORE.INTER.CONST>
1

>  <SCORE.INTER.POLAR>
-0.824621

>  <SCORE.INTER.REPUL>
0

>  <SCORE.INTER.ROT>
0

>  <SCORE.INTER.VDW>
-14.6426

>  <SCORE.INTER.norm>
-0.634019

>  <SCORE.INTRA>
0

>  <SCORE.INTRA.DIHEDRAL>
0

>  <SCORE.INTRA.DIHEDRAL.0>
0

>  <SCORE.INTRA.POLAR>
0

>  <SCORE.INTRA.POLAR.0>
0

>  <SCORE.INTRA.REPUL>
0

>  <SCORE.INTRA.REPUL.0>
0

>  <SCORE.INTRA.VDW>
0

>  <SCORE.INTRA.VDW.0>
0

>  <SCORE.INTRA.norm>
0

>  <SCORE.RESTR>
0

>  <SCORE.RESTR.CAVITY>
0

>  <SCORE.RESTR.norm>
0

>  <SCORE.SYSTEM>
-2.0855

>  <SCORE.SYSTEM.CONST>
0

>  <SCORE.SYSTEM.DIHEDRAL>
2.02618

>  <SCORE.SYSTEM.POLAR>
-0.400734

>  <SCORE.SYSTEM.VDW>
-1.7361

>  <SCORE.SYSTEM.norm>
-0.109763

>  <SCORE.heavy>
19

>  <SCORE.norm>
-0.743782

$$$$
HMD.pdb
  rDOCK(R)          3D
libRbt.so/2013.1/901 2013/11/27
 24 26  0  0  0  0  0  0  0  0999 V2000
   -7.1014   28.5485   15.6439 Br  0  0  0  0  0  0
   -4.7326   30.7578   11.3796 O   0  0  0  0  0  0
   -0.9814   24.4609   11.4596 O   0  0  0  0  0  0
   -5.6723   29.1580   13.3494 N   0  0  0  0  0  0
   -3.7285   29.0296   10.2618 N   0  0  0  0  0  0
   -1.8809   23.2184   13.1736 N   0  0  0  0  0  0
   -3.3531   24.7105   13.9786 N   0  0  0  0  0  0
   -3.2347   22.6301   15.0102 N   0  0  0  0  0  0
   -5.8006   28.2872   14.3528 C   0  0  0  0  0  0
   -4.8916   27.2756   14.2479 C   0  0  0  0  0  0
   -4.1414   27.5349   13.0694 C   0  0  0  0  0  0
   -4.6739   28.7495   12.5369 C   0  0  0  0  0  0
   -4.3786   29.5717   11.3554 C   0  0  0  0  0  0
   -3.2442   27.6509   10.0769 C   0  0  0  0  0  0
   -2.3158   27.1838   11.1834 C   0  0  0  0  0  0
   -3.0615   26.6496   12.4029 C   0  0  0  0  0  0
   -2.7671   25.3709   12.8883 C   0  0  0  0  0  0
   -1.7713   24.3300   12.4075 C   0  0  0  0  0  0
   -2.8293   23.4752   14.0820 C   0  0  0  0  0  0
   -6.2177   29.9676   13.2222 H   0  0  0  0  0  0
   -3.5688   29.6445    9.5098 H   0  0  0  0  0  0
   -4.0390   25.0907   14.5738 H   0  0  0  0  0  0
   -2.8361   21.7316   15.0658 H   0  0  0  0  0  0
   -3.9357   22.8980   15.6474 H   0  0  0  0  0  0
  1  9  1  0  0  0
  2 13  2  0  0  0
  3 18  2  0  0  0
  4  9  1  0  0  0
  4 12  1  0  0  0
  4 20  1  0  0  0
  5 13  1  0  0  0
  5 14  1  0  0  0
  5 21  1  0  0  0
  6 18  1  0  0  0
  6 19  2  0  0  0
  7 17  1  0  0  0
  7 19  1  0  0  0
  7 22  1  0  0  0
  8 19  1  0  0  0
  8 23  1  0  0  0
  8 24  1  0  0  0
  9 10  2  0  0  0
 10 11  1  0  0  0
 11 12  2  0  0  0
 11 16  1  0  0  0
 12 13  1  0  0  0
 14 15  1  0  0  0
 15 16  1  0  0  0
 16 17  2  0  0  0
 17 18  1  0  0  0
M  END
>  <CHROM.0>
-93.69389822,80.54257046,117.25887759,77.21908790,122.92849720,-61.11066012

>  <CHROM.1>
-4.39623971,27.12596438,13.35002702,2.79300348,0.79028951,-0.67934518

>  <FORMUL>
      HMD    C11 H10 Br1 N5 O2

>  <HET>
 HMD  A 400      19

>  <HETNAM>
     HMD 4-(5-AMINO-4-OXO-4H-PYRAZOL-3-YL)-2-BROMO-4,5,6,7-TETRA
   2 HMD HYDRO-3AH-PYRROLO[2,3-C]AZEPIN-8-ONE

>  <HETSYN>
     HMD HYMENIALDISINE

>  <Name>
HMD.pdb

>  <RI>
0

>  <Rbt.Current_Directory>
/home/malgorzata/Desktop/rDOCK_IFD/test2/IFD

>  <Rbt.Executable>
rbdock ($Id: //depot/dev/client3/rdock/2013.1/src/exe/rbdock.cxx#4 $)

>  <Rbt.Library>
libRbt.so (2013.1, Build901 2013/11/27)

>  <Rbt.Parameter_File>
/home/malgorzata/Desktop/rDock_2013.1_src/data/scripts/hard_docking.prm

>  <Rbt.Receptor>
cavity.prm

>  <SCORE>
-13.1927

>  <SCORE.INTER>
-11.7795

>  <SCORE.INTER.CONST>
1

>  <SCORE.INTER.POLAR>
-0.577561

>  <SCORE.INTER.REPUL>
0

>  <SCORE.INTER.ROT>
0

>  <SCORE.INTER.VDW>
-15.2157

>  <SCORE.INTER.norm>
-0.619971

>  <SCORE.INTRA>
0

>  <SCORE.INTRA.DIHEDRAL>
0

>  <SCORE.INTRA.DIHEDRAL.0>
0

>  <SCORE.INTRA.POLAR>
0

>  <SCORE.INTRA.POLAR.0>
0

>  <SCORE.INTRA.REPUL>
0

>  <SCORE.INTRA.REPUL.0>
0

>  <SCORE.INTRA.VDW>
0

>  <SCORE.INTRA.VDW.0>
0

>  <SCORE.INTRA.norm>
0

>  <SCORE.RESTR>
0

>  <SCORE.RESTR.CAVITY>
0

>  <SCORE.RESTR.norm>
0

>  <SCORE.SYSTEM>
-1.41324

>  <SCORE.SYSTEM.CONST>
0

>  <SCORE.SYSTEM.DIHEDRAL>
2.03097

>  <SCORE.SYSTEM.POLAR>
-0.397961

>  <SCORE.SYSTEM.VDW>
-1.07565

>  <SCORE.SYSTEM.norm>
-0.0743809

>  <SCORE.heavy>
19

>  <SCORE.norm>
-0.694352

$$$$
HMD.pdb
  rDOCK(R)          3D
libRbt.so/2013.1/901 2013/11/27
 24 26  0  0  0  0  0  0  0  0999 V2000
   -6.2836   27.2427   14.1650 Br  0  0  0  0  0  0
   -2.7632   27.3875   10.1324 O   0  0  0  0  0  0
    0.0292   21.6215   13.6940 O   0  0  0  0  0  0
   -4.3151   26.7918   12.2677 N   0  0  0  0  0  0
   -1.7688   25.3248   10.1014 N   0  0  0  0  0  0
   -1.3809   21.2407   15.4709 N   0  0  0  0  0  0
   -2.7890   22.9690   15.2023 N   0  0  0  0  0  0
   -3.1725   21.5158   16.9764 N   0  0  0  0  0  0
   -4.7742   26.4290   13.4674 C   0  0  0  0  0  0
   -4.0034   25.4455   14.0142 C   0  0  0  0  0  0
   -2.9836   25.1648   13.0655 C   0  0  0  0  0  0
   -3.2229   26.0541   11.9728 C   0  0  0  0  0  0
   -2.5693   26.2935   10.6787 C   0  0  0  0  0  0
   -1.4383   23.9853   10.6171 C   0  0  0  0  0  0
   -0.8467   24.0058   12.0149 C   0  0  0  0  0  0
   -1.9068   24.0545   13.1115 C   0  0  0  0  0  0
   -1.8954   23.0930   14.1278 C   0  0  0  0  0  0
   -0.9613   21.9222   14.3782 C   0  0  0  0  0  0
   -2.4656   21.8801   15.9239 C   0  0  0  0  0  0
   -4.7091   27.4853   11.6908 H   0  0  0  0  0  0
   -1.3681   25.5610    9.2337 H   0  0  0  0  0  0
   -3.5345   23.5816   15.3974 H   0  0  0  0  0  0
   -2.9160   20.7150   17.4885 H   0  0  0  0  0  0
   -3.9566   22.0447   17.2497 H   0  0  0  0  0  0
  1  9  1  0  0  0
  2 13  2  0  0  0
  3 18  2  0  0  0
  4  9  1  0  0  0
  4 12  1  0  0  0
  4 20  1  0  0  0
  5 13  1  0  0  0
  5 14  1  0  0  0
  5 21  1  0  0  0
  6 18  1  0  0  0
  6 19  2  0  0  0
  7 17  1  0  0  0
  7 19  1  0  0  0
  7 22  1  0  0  0
  8 19  1  0  0  0
  8 23  1  0  0  0
  8 24  1  0  0  0
  9 10  2  0  0  0
 10 11  1  0  0  0
 11 12  2  0  0  0
 11 16  1  0  0  0
 12 13  1  0  0  0
 14 15  1  0  0  0
 15 16  1  0  0  0
 16 17  2  0  0  0
 17 18  1  0  0  0
M  END
>  <CHROM.0>
-115.57897271,80.71233938,116.05108855,173.87219895,-122.98157595,-61.11066012

>  <CHROM.1>
-3.34503324,24.91880580,13.41159738,2.48128416,0.67218964,-0.90230379

>  <FORMUL>
      HMD    C11 H10 Br1 N5 O2

>  <HET>
 HMD  A 400      19

>  <HETNAM>
     HMD 4-(5-AMINO-4-OXO-4H-PYRAZOL-3-YL)-2-BROMO-4,5,6,7-TETRA
   2 HMD HYDRO-3AH-PYRROLO[2,3-C]AZEPIN-8-ONE

>  <HETSYN>
     HMD HYMENIALDISINE

>  <Name>
HMD.pdb

>  <RI>
0

>  <Rbt.Current_Directory>
/home/malgorzata/Desktop/rDOCK_IFD/test2/IFD

>  <Rbt.Executable>
rbdock ($Id: //depot/dev/client3/rdock/2013.1/src/exe/rbdock.cxx#4 $)

>  <Rbt.Library>
libRbt.so (2013.1, Build901 2013/11/27)

>  <Rbt.Parameter_File>
/home/malgorzata/Desktop/rDock_2013.1_src/data/scripts/hard_docking.prm

>  <Rbt.Receptor>
cavity.prm

>  <SCORE>
-13.2419

>  <SCORE.INTER>
-12.2957

>  <SCORE.INTER.CONST>
1

>  <SCORE.INTER.POLAR>
-0.824621

>  <SCORE.INTER.REPUL>
0

>  <SCORE.INTER.ROT>
0

>  <SCORE.INTER.VDW>
-14.892

>  <SCORE.INTER.norm>
-0.647141

>  <SCORE.INTRA>
0

>  <SCORE.INTRA.DIHEDRAL>
0

>  <SCORE.INTRA.DIHEDRAL.0>
0

>  <SCORE.INTRA.POLAR>
0

>  <SCORE.INTRA.POLAR.0>
0

>  <SCORE.INTRA.REPUL>
0

>  <SCORE.INTRA.REPUL.0>
0

>  <SCORE.INTRA.VDW>
0

>  <SCORE.INTRA.VDW.0>
0

>  <SCORE.INTRA.norm>
0

>  <SCORE.RESTR>
1.10059

>  <SCORE.RESTR.CAVITY>
1.10059

>  <SCORE.RESTR.norm>
0.0579259

>  <SCORE.SYSTEM>
-2.04678

>  <SCORE.SYSTEM.CONST>
0

>  <SCORE.SYSTEM.DIHEDRAL>
2.02908

>  <SCORE.SYSTEM.POLAR>
-0.397361

>  <SCORE.SYSTEM.VDW>
-1.71029

>  <SCORE.SYSTEM.norm>
-0.107725

>  <SCORE.heavy>
19

>  <SCORE.norm>
-0.696941

$$$$
HMD.pdb
  rDOCK(R)          3D
libRbt.so/2013.1/901 2013/11/27
 24 26  0  0  0  0  0  0  0  0999 V2000
   -0.3389   30.4810    6.9398 Br  0  0  0  0  0  0
   -5.0774   29.5119    9.2384 O   0  0  0  0  0  0
   -1.3705   23.9176   12.1866 O   0  0  0  0  0  0
   -2.4858   29.6242    8.4679 N   0  0  0  0  0  0
   -4.6357   28.1398   11.0180 N   0  0  0  0  0  0
    0.7949   24.1412   11.4439 N   0  0  0  0  0  0
    0.5394   25.9122   10.0875 N   0  0  0  0  0  0
    2.6646   24.9904   10.2884 N   0  0  0  0  0  0
   -1.2421   29.3350    8.0791 C   0  0  0  0  0  0
   -0.8123   28.1638    8.6307 C   0  0  0  0  0  0
   -1.8782   27.6910    9.4424 C   0  0  0  0  0  0
   -2.9240   28.6544    9.2993 C   0  0  0  0  0  0
   -4.2781   28.7931    9.8527 C   0  0  0  0  0  0
   -3.8121   27.2553   11.8599 C   0  0  0  0  0  0
   -3.1962   26.0969   11.0963 C   0  0  0  0  0  0
   -1.8944   26.4701   10.3928 C   0  0  0  0  0  0
   -0.7405   25.7142   10.6267 C   0  0  0  0  0  0
   -0.5101   24.4981   11.5066 C   0  0  0  0  0  0
    1.3844   25.0026   10.6066 C   0  0  0  0  0  0
   -3.0007   30.4169    8.1928 H   0  0  0  0  0  0
   -5.5600   28.2847   11.3243 H   0  0  0  0  0  0
    0.7811   26.6066    9.4328 H   0  0  0  0  0  0
    3.2631   24.3147   10.6814 H   0  0  0  0  0  0
    3.0213   25.6570    9.6578 H   0  0  0  0  0  0
  1  9  1  0  0  0
  2 13  2  0  0  0
  3 18  2  0  0  0
  4  9  1  0  0  0
  4 12  1  0  0  0
  4 20  1  0  0  0
  5 13  1  0  0  0
  5 14  1  0  0  0
  5 21  1  0  0  0
  6 18  1  0  0  0
  6 19  2  0  0  0
  7 17  1  0  0  0
  7 19  1  0  0  0
  7 22  1  0  0  0
  8 19  1  0  0  0
  8 23  1  0  0  0
  8 24  1  0  0  0
  9 10  2  0  0  0
 10 11  1  0  0  0
 11 12  2  0  0  0
 11 16  1  0  0  0
 12 13  1  0  0  0
 14 15  1  0  0  0
 15 16  1  0  0  0
 16 17  2  0  0  0
 17 18  1  0  0  0
M  END
>  <CHROM.0>
-93.78586304,79.85606803,-101.73428994,173.48444595,154.61726281,-61.11066012

>  <CHROM.1>
-1.32506210,27.76065258,9.43591687,-1.73535794,-0.31653528,2.47599330

>  <FORMUL>
      HMD    C11 H10 Br1 N5 O2

>  <HET>
 HMD  A 400      19

>  <HETNAM>
     HMD 4-(5-AMINO-4-OXO-4H-PYRAZOL-3-YL)-2-BROMO-4,5,6,7-TETRA
   2 HMD HYDRO-3AH-PYRROLO[2,3-C]AZEPIN-8-ONE

>  <HETSYN>
     HMD HYMENIALDISINE

>  <Name>
HMD.pdb

>  <RI>
0

>  <Rbt.Current_Directory>
/home/malgorzata/Desktop/rDOCK_IFD/test2/IFD

>  <Rbt.Executable>
rbdock ($Id: //depot/dev/client3/rdock/2013.1/src/exe/rbdock.cxx#4 $)

>  <Rbt.Library>
libRbt.so (2013.1, Build901 2013/11/27)

>  <Rbt.Parameter_File>
/home/malgorzata/Desktop/rDock_2013.1_src/data/scripts/hard_docking.prm

>  <Rbt.Receptor>
cavity.prm

>  <SCORE>
-14.3364

>  <SCORE.INTER>
-12.2259

>  <SCORE.INTER.CONST>
1

>  <SCORE.INTER.POLAR>
-1.66107

>  <SCORE.INTER.REPUL>
0.0146072

>  <SCORE.INTER.ROT>
0

>  <SCORE.INTER.VDW>
-12.0513

>  <SCORE.INTER.norm>
-0.643468

>  <SCORE.INTRA>
0

>  <SCORE.INTRA.DIHEDRAL>
0

>  <SCORE.INTRA.DIHEDRAL.0>
0

>  <SCORE.INTRA.POLAR>
0

>  <SCORE.INTRA.POLAR.0>
0

>  <SCORE.INTRA.REPUL>
0

>  <SCORE.INTRA.REPUL.0>
0

>  <SCORE.INTRA.VDW>
0

>  <SCORE.INTRA.VDW.0>
0

>  <SCORE.INTRA.norm>
0

>  <SCORE.RESTR>
0

>  <SCORE.RESTR.CAVITY>
0

>  <SCORE.RESTR.norm>
0

>  <SCORE.SYSTEM>
-2.1105

>  <SCORE.SYSTEM.CONST>
0

>  <SCORE.SYSTEM.DIHEDRAL>
2.02638

>  <SCORE.SYSTEM.POLAR>
-0.40024

>  <SCORE.SYSTEM.VDW>
-1.76287

>  <SCORE.SYSTEM.norm>
-0.111079

>  <SCORE.heavy>
19

>  <SCORE.norm>
-0.754547

$$$$
HMD.pdb
  rDOCK(R)          3D
libRbt.so/2013.1/901 2013/11/27
 24 26  0  0  0  0  0  0  0  0999 V2000
   -2.8296   23.1577   14.6192 Br  0  0  0  0  0  0
   -0.9582   24.9647    9.9385 O   0  0  0  0  0  0
   -5.3609   30.6119   11.5050 O   0  0  0  0  0  0
   -2.0924   24.5943   12.3673 N   0  0  0  0  0  0
   -1.3830   27.2150    9.9265 N   0  0  0  0  0  0
   -6.2495   30.1566   13.5771 N   0  0  0  0  0  0
   -5.3610   28.1235   13.9216 N   0  0  0  0  0  0
   -6.7244   29.0130   15.5817 N   0  0  0  0  0  0
   -2.9256   24.5556   13.4093 C   0  0  0  0  0  0
   -3.7633   25.6321   13.4118 C   0  0  0  0  0  0
   -3.4109   26.4136   12.2787 C   0  0  0  0  0  0
   -2.3449   25.7057   11.6426 C   0  0  0  0  0  0
   -1.5199   25.9423   10.4500 C   0  0  0  0  0  0
   -1.9803   28.4715   10.4100 C   0  0  0  0  0  0
   -3.4914   28.4103   10.5409 C   0  0  0  0  0  0
   -3.9523   27.8021   11.8624 C   0  0  0  0  0  0
   -4.8420   28.5108   12.6770 C   0  0  0  0  0  0
   -5.4947   29.8691   12.4898 C   0  0  0  0  0  0
   -6.1385   29.1103   14.4038 C   0  0  0  0  0  0
   -1.4045   23.9211   12.1603 H   0  0  0  0  0  0
   -0.8127   27.2910    9.1277 H   0  0  0  0  0  0
   -5.1842   27.2656   14.3710 H   0  0  0  0  0  0
   -7.2888   29.7485   15.9131 H   0  0  0  0  0  0
   -6.5973   28.2048   16.1294 H   0  0  0  0  0  0
  1  9  1  0  0  0
  2 13  2  0  0  0
  3 18  2  0  0  0
  4  9  1  0  0  0
  4 12  1  0  0  0
  4 20  1  0  0  0
  5 13  1  0  0  0
  5 14  1  0  0  0
  5 21  1  0  0  0
  6 18  1  0  0  0
  6 19  2  0  0  0
  7 17  1  0  0  0
  7 19  1  0  0  0
  7 22  1  0  0  0
  8 19  1  0  0  0
  8 23  1  0  0  0
  8 24  1  0  0  0
  9 10  2  0  0  0
 10 11  1  0  0  0
 11 12  2  0  0  0
 11 16  1  0  0  0
 12 13  1  0  0  0
 14 15  1  0  0  0
 15 16  1  0  0  0
 16 17  2  0  0  0
 17 18  1  0  0  0
M  END
>  <CHROM.0>
-90.29097220,-66.91149146,136.56575357,-73.98215058,131.64476940,-61.11066012

>  <CHROM.1>
-3.54102824,26.45290263,12.81947634,0.87001694,-0.81673696,2.45347640

>  <FORMUL>
      HMD    C11 H10 Br1 N5 O2

>  <HET>
 HMD  A 400      19

>  <HETNAM>
     HMD 4-(5-AMINO-4-OXO-4H-PYRAZOL-3-YL)-2-BROMO-4,5,6,7-TETRA
   2 HMD HYDRO-3AH-PYRROLO[2,3-C]AZEPIN-8-ONE

>  <HETSYN>
     HMD HYMENIALDISINE

>  <Name>
HMD.pdb

>  <RI>
0

>  <Rbt.Current_Directory>
/home/malgorzata/Desktop/rDOCK_IFD/test2/IFD

>  <Rbt.Executable>
rbdock ($Id: //depot/dev/client3/rdock/2013.1/src/exe/rbdock.cxx#4 $)

>  <Rbt.Library>
libRbt.so (2013.1, Build901 2013/11/27)

>  <Rbt.Parameter_File>
/home/malgorzata/Desktop/rDock_2013.1_src/data/scripts/hard_docking.prm

>  <Rbt.Receptor>
cavity.prm

>  <SCORE>
-11.8509

>  <SCORE.INTER>
-11.2592

>  <SCORE.INTER.CONST>
1

>  <SCORE.INTER.POLAR>
-0.794546

>  <SCORE.INTER.REPUL>
0

>  <SCORE.INTER.ROT>
0

>  <SCORE.INTER.VDW>
-13.9577

>  <SCORE.INTER.norm>
-0.59259

>  <SCORE.INTRA>
0

>  <SCORE.INTRA.DIHEDRAL>
0

>  <SCORE.INTRA.DIHEDRAL.0>
0

>  <SCORE.INTRA.POLAR>
0

>  <SCORE.INTRA.POLAR.0>
0

>  <SCORE.INTRA.REPUL>
0

>  <SCORE.INTRA.REPUL.0>
0

>  <SCORE.INTRA.VDW>
0

>  <SCORE.INTRA.VDW.0>
0

>  <SCORE.INTRA.norm>
0

>  <SCORE.RESTR>
0

>  <SCORE.RESTR.CAVITY>
0

>  <SCORE.RESTR.norm>
0

>  <SCORE.SYSTEM>
-0.591678

>  <SCORE.SYSTEM.CONST>
0

>  <SCORE.SYSTEM.DIHEDRAL>
2.02712

>  <SCORE.SYSTEM.REPUL>
0.00918352

>  <SCORE.SYSTEM.VDW>
-1.65116

>  <SCORE.SYSTEM.norm>
-0.031141

>  <SCORE.heavy>
19

>  <SCORE.norm>
-0.623731

$$$$
HMD.pdb
  rDOCK(R)          3D
libRbt.so/2013.1/901 2013/11/27
 24 26  0  0  0  0  0  0  0  0999 V2000
   -7.0652   28.2704   14.2609 Br  0  0  0  0  0  0
   -3.7961   29.1323   10.1081 O   0  0  0  0  0  0
    0.1124   23.8675   13.3846 O   0  0  0  0  0  0
   -5.1288   28.2204   12.2795 N   0  0  0  0  0  0
   -2.4567   27.2794    9.9767 N   0  0  0  0  0  0
   -1.1335   23.2008   15.1995 N   0  0  0  0  0  0
   -2.8335   24.6587   15.0364 N   0  0  0  0  0  0
   -2.8814   23.1185   16.7776 N   0  0  0  0  0  0
   -5.4666   27.7535   13.4834 C   0  0  0  0  0  0
   -4.5128   26.9090   13.9709 C   0  0  0  0  0  0
   -3.5000   26.8360   12.9771 C   0  0  0  0  0  0
   -3.9372   27.6949   11.9220 C   0  0  0  0  0  0
   -3.3903   28.0771   10.6128 C   0  0  0  0  0  0
   -1.8747   26.0075   10.4383 C   0  0  0  0  0  0
   -1.2382   26.0988   11.8134 C   0  0  0  0  0  0
   -2.2438   25.9329   12.9492 C   0  0  0  0  0  0
   -2.0212   24.9646   13.9341 C   0  0  0  0  0  0
   -0.8862   23.9718   14.1137 C   0  0  0  0  0  0
   -2.2939   23.6272   15.7116 C   0  0  0  0  0  0
   -5.6623   28.8470   11.7392 H   0  0  0  0  0  0
   -2.1403   27.6034    9.1026 H   0  0  0  0  0  0
   -3.6664   25.1249   15.2776 H   0  0  0  0  0  0
   -2.4670   22.3637   17.2549 H   0  0  0  0  0  0
   -3.7341   23.4936   17.0958 H   0  0  0  0  0  0
  1  9  1  0  0  0
  2 13  2  0  0  0
  3 18  2  0  0  0
  4  9  1  0  0  0
  4 12  1  0  0  0
  4 20  1  0  0  0
  5 13  1  0  0  0
  5 14  1  0  0  0
  5 21  1  0  0  0
  6 18  1  0  0  0
  6 19  2  0  0  0
  7 17  1  0  0  0
  7 19  1  0  0  0
  7 22  1  0  0  0
  8 19  1  0  0  0
  8 23  1  0  0  0
  8 24  1  0  0  0
  9 10  2  0  0  0
 10 11  1  0  0  0
 11 12  2  0  0  0
 11 16  1  0  0  0
 12 13  1  0  0  0
 14 15  1  0  0  0
 15 16  1  0  0  0
 16 17  2  0  0  0
 17 18  1  0  0  0
M  END
>  <CHROM.0>
115.19354806,-149.11928515,124.77386865,174.22259791,-110.41172302,-61.11066012

>  <CHROM.1>
-3.79778897,26.52173976,13.32850263,2.64845186,0.55234778,-0.97102032

>  <FORMUL>
      HMD    C11 H10 Br1 N5 O2

>  <HET>
 HMD  A 400      19

>  <HETNAM>
     HMD 4-(5-AMINO-4-OXO-4H-PYRAZOL-3-YL)-2-BROMO-4,5,6,7-TETRA
   2 HMD HYDRO-3AH-PYRROLO[2,3-C]AZEPIN-8-ONE

>  <HETSYN>
     HMD HYMENIALDISINE

>  <Name>
HMD.pdb

>  <RI>
0

>  <Rbt.Current_Directory>
/home/malgorzata/Desktop/rDOCK_IFD/test2/IFD

>  <Rbt.Executable>
rbdock ($Id: //depot/dev/client3/rdock/2013.1/src/exe/rbdock.cxx#4 $)

>  <Rbt.Library>
libRbt.so (2013.1, Build901 2013/11/27)

>  <Rbt.Parameter_File>
/home/malgorzata/Desktop/rDock_2013.1_src/data/scripts/hard_docking.prm

>  <Rbt.Receptor>
cavity.prm

>  <SCORE>
-13.495

>  <SCORE.INTER>
-13.4041

>  <SCORE.INTER.CONST>
1

>  <SCORE.INTER.POLAR>
-1.54359

>  <SCORE.INTER.REPUL>
0

>  <SCORE.INTER.ROT>
0

>  <SCORE.INTER.VDW>
-13.5559

>  <SCORE.INTER.norm>
-0.705477

>  <SCORE.INTRA>
0

>  <SCORE.INTRA.DIHEDRAL>
0

>  <SCORE.INTRA.DIHEDRAL.0>
0

>  <SCORE.INTRA.POLAR>
0

>  <SCORE.INTRA.POLAR.0>
0

>  <SCORE.INTRA.REPUL>
0

>  <SCORE.INTRA.REPUL.0>
0

>  <SCORE.INTRA.VDW>
0

>  <SCORE.INTRA.VDW.0>
0

>  <SCORE.INTRA.norm>
0

>  <SCORE.RESTR>
0.808112

>  <SCORE.RESTR.CAVITY>
0.808112

>  <SCORE.RESTR.norm>
0.0425322

>  <SCORE.SYSTEM>
-0.899091

>  <SCORE.SYSTEM.CONST>
0

>  <SCORE.SYSTEM.DIHEDRAL>
2.02589

>  <SCORE.SYSTEM.VDW>
-1.91203

>  <SCORE.SYSTEM.norm>
-0.0473206

>  <SCORE.heavy>
19

>  <SCORE.norm>
-0.710265

$$$$
HMD.pdb
  rDOCK(R)          3D
libRbt.so/2013.1/901 2013/11/27
 24 26  0  0  0  0  0  0  0  0999 V2000
   -0.9021   25.3356   14.1305 Br  0  0  0  0  0  0
    0.8301   28.8234   10.4547 O   0  0  0  0  0  0
   -5.4051   32.2466   12.2247 O   0  0  0  0  0  0
   -0.4148   27.4837   12.4492 N   0  0  0  0  0  0
   -0.3345   30.7580   10.8363 N   0  0  0  0  0  0
   -6.3459   30.9999   13.9132 N   0  0  0  0  0  0
   -4.8676   29.3117   13.9938 N   0  0  0  0  0  0
   -6.6573   29.2654   15.4775 N   0  0  0  0  0  0
   -1.3127   26.9154   13.2570 C   0  0  0  0  0  0
   -2.4611   27.6492   13.3125 C   0  0  0  0  0  0
   -2.2534   28.7781   12.4752 C   0  0  0  0  0  0
   -0.9361   28.6224   11.9435 C   0  0  0  0  0  0
   -0.0941   29.4104   11.0328 C   0  0  0  0  0  0
   -1.3838   31.5970   11.4401 C   0  0  0  0  0  0
   -2.7858   31.0541   11.2304 C   0  0  0  0  0  0
   -3.1785   29.9999   12.2614 C   0  0  0  0  0  0
   -4.3553   30.1603   13.0010 C   0  0  0  0  0  0
   -5.4035   31.2587   12.9755 C   0  0  0  0  0  0
   -5.9920   29.8506   14.5001 C   0  0  0  0  0  0
    0.4828   27.1299   12.2536 H   0  0  0  0  0  0
    0.2742   31.2155   10.2124 H   0  0  0  0  0  0
   -4.4678   28.4573   14.2755 H   0  0  0  0  0  0
   -7.4776   29.6793   15.8312 H   0  0  0  0  0  0
   -6.3336   28.4149   15.8530 H   0  0  0  0  0  0
  1  9  1  0  0  0
  2 13  2  0  0  0
  3 18  2  0  0  0
  4  9  1  0  0  0
  4 12  1  0  0  0
  4 20  1  0  0  0
  5 13  1  0  0  0
  5 14  1  0  0  0
  5 21  1  0  0  0
  6 18  1  0  0  0
  6 19  2  0  0  0
  7 17  1  0  0  0
  7 19  1  0  0  0
  7 22  1  0  0  0
  8 19  1  0  0  0
  8 23  1  0  0  0
  8 24  1  0  0  0
  9 10  2  0  0  0
 10 11  1  0  0  0
 11 12  2  0  0  0
 11 16  1  0  0  0
 12 13  1  0  0  0
 14 15  1  0  0  0
 15 16  1  0  0  0
 16 17  2  0  0  0
 17 18  1  0  0  0
M  END
>  <CHROM.0>
121.19710907,80.93819263,-98.97535269,-72.64703439,-107.15314840,-61.11066012

>  <CHROM.1>
-2.45834543,28.62774776,12.97142834,0.66370208,-0.47832442,2.58222142

>  <FORMUL>
      HMD    C11 H10 Br1 N5 O2

>  <HET>
 HMD  A 400      19

>  <HETNAM>
     HMD 4-(5-AMINO-4-OXO-4H-PYRAZOL-3-YL)-2-BROMO-4,5,6,7-TETRA
   2 HMD HYDRO-3AH-PYRROLO[2,3-C]AZEPIN-8-ONE

>  <HETSYN>
     HMD HYMENIALDISINE

>  <Name>
HMD.pdb

>  <RI>
0

>  <Rbt.Current_Directory>
/home/malgorzata/Desktop/rDOCK_IFD/test2/IFD

>  <Rbt.Executable>
rbdock ($Id: //depot/dev/client3/rdock/2013.1/src/exe/rbdock.cxx#4 $)

>  <Rbt.Library>
libRbt.so (2013.1, Build901 2013/11/27)

>  <Rbt.Parameter_File>
/home/malgorzata/Desktop/rDock_2013.1_src/data/scripts/hard_docking.prm

>  <Rbt.Receptor>
cavity.prm

>  <SCORE>
-14.1195

>  <SCORE.INTER>
-12.0327

>  <SCORE.INTER.CONST>
1

>  <SCORE.INTER.POLAR>
-0.533933

>  <SCORE.INTER.REPUL>
0

>  <SCORE.INTER.ROT>
0

>  <SCORE.INTER.VDW>
-15.6173

>  <SCORE.INTER.norm>
-0.633299

>  <SCORE.INTRA>
0

>  <SCORE.INTRA.DIHEDRAL>
0

>  <SCORE.INTRA.DIHEDRAL.0>
0

>  <SCORE.INTRA.POLAR>
0

>  <SCORE.INTRA.POLAR.0>
0

>  <SCORE.INTRA.REPUL>
0

>  <SCORE.INTRA.REPUL.0>
0

>  <SCORE.INTRA.VDW>
0

>  <SCORE.INTRA.VDW.0>
0

>  <SCORE.INTRA.norm>
0

>  <SCORE.RESTR>
0

>  <SCORE.RESTR.CAVITY>
0

>  <SCORE.RESTR.norm>
0

>  <SCORE.SYSTEM>
-2.08684

>  <SCORE.SYSTEM.CONST>
0

>  <SCORE.SYSTEM.DIHEDRAL>
2.02334

>  <SCORE.SYSTEM.POLAR>
-0.396541

>  <SCORE.SYSTEM.VDW>
-1.75027

>  <SCORE.SYSTEM.norm>
-0.109834

>  <SCORE.heavy>
19

>  <SCORE.norm>
-0.743133

$$$$
HMD.pdb
  rDOCK(R)          3D
libRbt.so/2013.1/901 2013/11/27
 24 26  0  0  0  0  0  0  0  0999 V2000
   -1.4555   31.4880    9.4438 Br  0  0  0  0  0  0
   -5.6128   33.3241   12.2760 O   0  0  0  0  0  0
   -6.0416   26.2946   14.3087 O   0  0  0  0  0  0
   -3.5706   31.9282   11.1789 N   0  0  0  0  0  0
   -6.0186   31.7417   13.8810 N   0  0  0  0  0  0
   -4.2602   25.2427   13.3034 N   0  0  0  0  0  0
   -3.4350   26.9633   12.1200 N   0  0  0  0  0  0
   -2.3433   24.9156   11.9728 N   0  0  0  0  0  0
   -2.8060   30.9939   10.6097 C   0  0  0  0  0  0
   -3.1693   29.7436   11.0162 C   0  0  0  0  0  0
   -4.2459   29.9180   11.9268 C   0  0  0  0  0  0
   -4.4675   31.3283   11.9911 C   0  0  0  0  0  0
   -5.4023   32.1906   12.7273 C   0  0  0  0  0  0
   -5.8788   30.4332   14.5425 C   0  0  0  0  0  0
   -6.1683   29.2591   13.6249 C   0  0  0  0  0  0
   -4.9637   28.8476   12.7831 C   0  0  0  0  0  0
   -4.5230   27.5200   12.8088 C   0  0  0  0  0  0
   -5.0500   26.3120   13.5631 C   0  0  0  0  0  0
   -3.3136   25.6663   12.4578 C   0  0  0  0  0  0
   -3.4933   32.8983   11.0306 H   0  0  0  0  0  0
   -6.6296   32.3791   14.3164 H   0  0  0  0  0  0
   -2.8525   27.4452   11.4893 H   0  0  0  0  0  0
   -2.2754   23.9690   12.2349 H   0  0  0  0  0  0
   -1.6871   25.3019   11.3488 H   0  0  0  0  0  0
  1  9  1  0  0  0
  2 13  2  0  0  0
  3 18  2  0  0  0
  4  9  1  0  0  0
  4 12  1  0  0  0
  4 20  1  0  0  0
  5 13  1  0  0  0
  5 14  1  0  0  0
  5 21  1  0  0  0
  6 18  1  0  0  0
  6 19  2  0  0  0
  7 17  1  0  0  0
  7 19  1  0  0  0
  7 22  1  0  0  0
  8 19  1  0  0  0
  8 23  1  0  0  0
  8 24  1  0  0  0
  9 10  2  0  0  0
 10 11  1  0  0  0
 11 12  2  0  0  0
 11 16  1  0  0  0
 12 13  1  0  0  0
 14 15  1  0  0  0
 15 16  1  0  0  0
 16 17  2  0  0  0
 17 18  1  0  0  0
M  END
>  <CHROM.0>
-71.09629597,82.12272102,123.41939252,175.79957808,127.38346326,-61.11066012

>  <CHROM.1>
-3.77202848,29.63389662,11.85198174,-1.09190661,-0.71252899,2.92423772

>  <FORMUL>
      HMD    C11 H10 Br1 N5 O2

>  <HET>
 HMD  A 400      19

>  <HETNAM>
     HMD 4-(5-AMINO-4-OXO-4H-PYRAZOL-3-YL)-2-BROMO-4,5,6,7-TETRA
   2 HMD HYDRO-3AH-PYRROLO[2,3-C]AZEPIN-8-ONE

>  <HETSYN>
     HMD HYMENIALDISINE

>  <Name>
HMD.pdb

>  <RI>
0

>  <Rbt.Current_Directory>
/home/malgorzata/Desktop/rDOCK_IFD/test2/IFD

>  <Rbt.Executable>
rbdock ($Id: //depot/dev/client3/rdock/2013.1/src/exe/rbdock.cxx#4 $)

>  <Rbt.Library>
libRbt.so (2013.1, Build901 2013/11/27)

>  <Rbt.Parameter_File>
/home/malgorzata/Desktop/rDock_2013.1_src/data/scripts/hard_docking.prm

>  <Rbt.Receptor>
cavity.prm

>  <SCORE>
-15.4158

>  <SCORE.INTER>
-13.3749

>  <SCORE.INTER.CONST>
1

>  <SCORE.INTER.POLAR>
-0.227199

>  <SCORE.INTER.REPUL>
0.0220664

>  <SCORE.INTER.ROT>
0

>  <SCORE.INTER.VDW>
-18.1128

>  <SCORE.INTER.norm>
-0.703943

>  <SCORE.INTRA>
0

>  <SCORE.INTRA.DIHEDRAL>
0

>  <SCORE.INTRA.DIHEDRAL.0>
0

>  <SCORE.INTRA.POLAR>
0

>  <SCORE.INTRA.POLAR.0>
0

>  <SCORE.INTRA.REPUL>
0

>  <SCORE.INTRA.REPUL.0>
0

>  <SCORE.INTRA.VDW>
0

>  <SCORE.INTRA.VDW.0>
0

>  <SCORE.INTRA.norm>
0

>  <SCORE.RESTR>
0

>  <SCORE.RESTR.CAVITY>
0

>  <SCORE.RESTR.norm>
0

>  <SCORE.SYSTEM>
-2.04089

>  <SCORE.SYSTEM.CONST>
0

>  <SCORE.SYSTEM.DIHEDRAL>
2.02822

>  <SCORE.SYSTEM.POLAR>
-0.391832

>  <SCORE.SYSTEM.VDW>
-1.72277

>  <SCORE.SYSTEM.norm>
-0.107415

>  <SCORE.heavy>
19

>  <SCORE.norm>
-0.811358

$$$$
HMD.pdb
  rDOCK(R)          3D
libRbt.so/2013.1/901 2013/11/27
 24 26  0  0  0  0  0  0  0  0999 V2000
    6.3925   24.2762    8.1442 Br  0  0  0  0  0  0
    1.9451   22.6037   10.6138 O   0  0  0  0  0  0
   -0.8816   28.5372    7.3684 O   0  0  0  0  0  0
    3.8277   23.7876    9.0720 N   0  0  0  0  0  0
    0.2099   23.6439    9.5406 N   0  0  0  0  0  0
    0.8216   29.4323    6.1081 N   0  0  0  0  0  0
    2.4832   28.0383    6.6891 N   0  0  0  0  0  0
    2.9622   29.7322    5.1701 N   0  0  0  0  0  0
    4.6037   24.6607    8.4264 C   0  0  0  0  0  0
    3.8973   25.7653    8.0504 C   0  0  0  0  0  0
    2.5631   25.5537    8.4907 C   0  0  0  0  0  0
    2.5726   24.2816    9.1417 C   0  0  0  0  0  0
    1.5539   23.4595    9.8092 C   0  0  0  0  0  0
   -0.4145   24.6102    8.6209 C   0  0  0  0  0  0
   -0.0080   26.0480    8.8889 C   0  0  0  0  0  0
    1.3139   26.4280    8.2277 C   0  0  0  0  0  0
    1.3715   27.5469    7.3898 C   0  0  0  0  0  0
    0.2968   28.5384    6.9798 C   0  0  0  0  0  0
    2.1086   29.1006    5.9528 C   0  0  0  0  0  0
    4.1226   22.9228    9.4384 H   0  0  0  0  0  0
   -0.4094   23.0531   10.0269 H   0  0  0  0  0  0
    3.3933   27.6651    6.7298 H   0  0  0  0  0  0
    2.6643   30.5071    4.6409 H   0  0  0  0  0  0
    3.8972   29.4288    5.1152 H   0  0  0  0  0  0
  1  9  1  0  0  0
  2 13  2  0  0  0
  3 18  2  0  0  0
  4  9  1  0  0  0
  4 12  1  0  0  0
  4 20  1  0  0  0
  5 13  1  0  0  0
  5 14  1  0  0  0
  5 21  1  0  0  0
  6 18  1  0  0  0
  6 19  2  0  0  0
  7 17  1  0  0  0
  7 19  1  0  0  0
  7 22  1  0  0  0
  8 19  1  0  0  0
  8 23  1  0  0  0
  8 24  1  0  0  0
  9 10  2  0  0  0
 10 11  1  0  0  0
 11 12  2  0  0  0
 11 16  1  0  0  0
 12 13  1  0  0  0
 14 15  1  0  0  0
 15 16  1  0  0  0
 16 17  2  0  0  0
 17 18  1  0  0  0
M  END
>  <CHROM.0>
-76.31928246,82.37865700,128.04403444,-173.28441484,-110.95701838,-61.11066012

>  <CHROM.1>
2.86149110,25.73471233,8.05586299,-0.77676360,0.18839005,-0.56902838

>  <FORMUL>
      HMD    C11 H10 Br1 N5 O2

>  <HET>
 HMD  A 400      19

>  <HETNAM>
     HMD 4-(5-AMINO-4-OXO-4H-PYRAZOL-3-YL)-2-BROMO-4,5,6,7-TETRA
   2 HMD HYDRO-3AH-PYRROLO[2,3-C]AZEPIN-8-ONE

>  <HETSYN>
     HMD HYMENIALDISINE

>  <Name>
HMD.pdb

>  <RI>
0

>  <Rbt.Current_Directory>
/home/malgorzata/Desktop/rDOCK_IFD/test2/IFD

>  <Rbt.Executable>
rbdock ($Id: //depot/dev/client3/rdock/2013.1/src/exe/rbdock.cxx#4 $)

>  <Rbt.Library>
libRbt.so (2013.1, Build901 2013/11/27)

>  <Rbt.Parameter_File>
/home/malgorzata/Desktop/rDock_2013.1_src/data/scripts/hard_docking.prm

>  <Rbt.Receptor>
cavity.prm

>  <SCORE>
-13.5518

>  <SCORE.INTER>
-11.5156

>  <SCORE.INTER.CONST>
1

>  <SCORE.INTER.POLAR>
-0.167719

>  <SCORE.INTER.REPUL>
0

>  <SCORE.INTER.ROT>
0

>  <SCORE.INTER.VDW>
-16.3453

>  <SCORE.INTER.norm>
-0.606082

>  <SCORE.INTRA>
0

>  <SCORE.INTRA.DIHEDRAL>
0

>  <SCORE.INTRA.DIHEDRAL.0>
0

>  <SCORE.INTRA.POLAR>
0

>  <SCORE.INTRA.POLAR.0>
0

>  <SCORE.INTRA.REPUL>
0

>  <SCORE.INTRA.REPUL.0>
0

>  <SCORE.INTRA.VDW>
0

>  <SCORE.INTRA.VDW.0>
0

>  <SCORE.INTRA.norm>
0

>  <SCORE.RESTR>
0

>  <SCORE.RESTR.CAVITY>
0

>  <SCORE.RESTR.norm>
0

>  <SCORE.SYSTEM>
-2.0362

>  <SCORE.SYSTEM.CONST>
0

>  <SCORE.SYSTEM.DIHEDRAL>
2.0276

>  <SCORE.SYSTEM.POLAR>
-0.390727

>  <SCORE.SYSTEM.VDW>
-1.72153

>  <SCORE.SYSTEM.norm>
-0.107169

>  <SCORE.heavy>
19

>  <SCORE.norm>
-0.713251

$$$$
