REMARK  9 active torsions:
REMARK  status: ('A' for Active; 'I' for Inactive)
REMARK    1  A    between atoms: C1_1  and  C2_4 
REMARK    2  A    between atoms: C4_6  and  NE_29 
REMARK    3  A    between atoms: C5_7  and  N5_8 
REMARK       I    between atoms: N5_8  and  C10_10 
REMARK    4  A    between atoms: C6_13  and  C7_15 
REMARK       I    between atoms: C7_15  and  N8_17 
REMARK    5  A    between atoms: N8_17  and  C81_18 
REMARK    6  A    between atoms: N8_17  and  C9_26 
REMARK    7  A    between atoms: C81_18  and  C82_19 
REMARK    8  A    between atoms: C82_19  and  CG_20 
REMARK    9  A    between atoms: C9_26  and  C91_27 
ROOT
HETATM    1  C2  DPC A 466      -4.172  60.803  -6.360  1.00  9.12     0.144 C 
HETATM    2  C3  DPC A 466      -4.558  62.083  -6.381  1.00  7.83     0.051 C 
HETATM    3  C4  DPC A 466      -5.049  62.717  -7.654  1.00  8.13     0.234 C 
HETATM    4  C5  DPC A 466      -5.413  61.676  -8.709  1.00  4.13     0.157 C 
HETATM    5  C6  DPC A 466      -4.342  60.587  -8.723  1.00  9.37     0.246 C 
HETATM    6  O6  DPC A 466      -4.180  60.030  -7.446  1.00 10.40    -0.328 OA
ENDROOT
BRANCH   5   7
HETATM    7  C7  DPC A 466      -4.805  59.431  -9.582  1.00 10.79     0.251 C 
HETATM    8  O7  DPC A 466      -5.758  59.459  -9.761  1.00  9.13    -0.270 OA
HETATM    9  N8  DPC A 466      -3.916  58.620 -10.139  1.00  9.99    -0.350 N 
BRANCH   9  10
HETATM   10  C81 DPC A 466      -4.456  57.574 -11.036  1.00  8.72     0.130 C 
BRANCH  10  11
HETATM   11  C82 DPC A 466      -4.136  56.159 -10.546  1.00  6.37     0.058 C 
BRANCH  11  12
HETATM   12  CG  DPC A 466      -2.778  55.751 -11.082  1.00 13.21    -0.057 A 
HETATM   13  CD1 DPC A 466      -2.374  56.143 -12.378  1.00 12.56     0.007 A 
HETATM   14  CE1 DPC A 466      -1.145  55.712 -12.908  1.00 14.24     0.001 A 
HETATM   15  CZ  DPC A 466      -0.305  54.888 -12.137  1.00 14.76     0.000 A 
HETATM   16  CE2 DPC A 466      -0.693  54.525 -10.841  1.00 12.57     0.001 A 
HETATM   17  CD2 DPC A 466      -1.916  54.954 -10.315  1.00 12.80     0.007 A 
ENDBRANCH  11  12
ENDBRANCH  10  11
ENDBRANCH   9  10
BRANCH   9  18
HETATM   18  C9  DPC A 466      -2.482  58.659  -9.860  1.00 12.20     0.125 C 
BRANCH  18  19
HETATM   19  C91 DPC A 466      -2.119  57.947  -8.546  1.00 11.35     0.015 C 
HETATM   20  C92 DPC A 466      -1.368  58.814  -7.518  1.00 10.72     0.006 C 
ENDBRANCH  18  19
ENDBRANCH   9  18
ENDBRANCH   5   7
BRANCH   4  21
HETATM   21  N5  DPC A 466      -5.459  62.315 -10.019  1.00  8.66    -0.351 N 
HETATM   22  C10 DPC A 466      -6.244  63.357 -10.332  1.00  8.96     0.214 C 
HETATM   23  O10 DPC A 466      -7.028  63.826  -9.525  1.00  8.83    -0.274 OA
HETATM   24  C11 DPC A 466      -6.066  63.953 -11.741  1.00  5.01     0.117 C 
ATOM     25  H5  DPC A 466      -4.852  61.943 -10.749  1.00  0.00     0.163 HD
ENDBRANCH   4  21
BRANCH   3  26
HETATM   26  NE  DPC A 466      -6.195  63.536  -7.359  1.00  7.66    -0.070 N 
ATOM     27  HE3 DPC A 466      -6.327  64.280  -8.044  1.00  0.00     0.275 HD
ATOM     28  HE2 DPC A 466      -7.075  63.042  -7.512  1.00  0.00     0.275 HD
ATOM     29  HE1 DPC A 466      -6.111  63.895  -6.408  1.00  0.00     0.275 HD
ENDBRANCH   3  26
BRANCH   1  30
HETATM   30  C1  DPC A 466      -3.638  60.191  -5.130  1.00 12.45     0.233 C 
HETATM   31  O1A DPC A 466      -3.684  60.827  -4.084  1.00 13.44    -0.642 OA
HETATM   32  O1B DPC A 466      -3.250  59.031  -5.119  1.00 11.63    -0.642 OA
ENDBRANCH   1  30
TORSDOF 9
