REMARK  9 active torsions:
REMARK  status: ('A' for Active; 'I' for Inactive)
REMARK    1  A    between atoms: C1_1  and  C2_4 
REMARK    2  A    between atoms: C4_6  and  NE_29 
REMARK    3  A    between atoms: C5_7  and  N5_8 
REMARK       I    between atoms: N5_8  and  C10_10 
REMARK    4  A    between atoms: C6_13  and  C7_15 
REMARK       I    between atoms: C7_15  and  N8_17 
REMARK    5  A    between atoms: N8_17  and  C81_18 
REMARK    6  A    between atoms: N8_17  and  C9_26 
REMARK    7  A    between atoms: C81_18  and  C82_19 
REMARK    8  A    between atoms: C82_19  and  CG_20 
REMARK    9  A    between atoms: C9_26  and  C91_27 
ROOT
HETATM    1  C2  DPC A 466      -2.011  56.497 -11.042  1.00  9.12     0.144 C 
HETATM    2  C3  DPC A 466      -1.567  55.808  -9.986  1.00  7.83     0.051 C 
HETATM    3  C4  DPC A 466      -1.574  56.420  -8.611  1.00  8.13     0.234 C 
HETATM    4  C5  DPC A 466      -2.470  57.654  -8.538  1.00  4.13     0.157 C 
HETATM    5  C6  DPC A 466      -2.248  58.504  -9.787  1.00  9.37     0.246 C 
HETATM    6  O6  DPC A 466      -2.461  57.749 -10.949  1.00 10.40    -0.328 OA
ENDROOT
BRANCH   5   7
HETATM    7  C7  DPC A 466      -3.294  59.595  -9.851  1.00 10.79     0.251 C 
HETATM    8  O7  DPC A 466      -4.175  59.254 -10.072  1.00  9.13    -0.270 OA
HETATM    9  N8  DPC A 466      -2.997  60.825  -9.453  1.00  9.99    -0.350 N 
BRANCH   9  10
HETATM   10  C81 DPC A 466      -4.107  61.803  -9.464  1.00  8.72     0.130 C 
BRANCH  10  11
HETATM   11  C82 DPC A 466      -5.122  61.549  -8.344  1.00  6.37     0.058 C 
BRANCH  11  12
HETATM   12  CG  DPC A 466      -4.669  62.284  -7.098  1.00 13.21    -0.057 A 
HETATM   13  CD1 DPC A 466      -5.220  61.960  -5.838  1.00 12.56     0.007 A 
HETATM   14  CE1 DPC A 466      -4.855  62.683  -4.688  1.00 14.24     0.001 A 
HETATM   15  CZ  DPC A 466      -3.926  63.735  -4.793  1.00 14.76     0.000 A 
HETATM   16  CE2 DPC A 466      -3.358  64.035  -6.038  1.00 12.57     0.001 A 
HETATM   17  CD2 DPC A 466      -3.722  63.315  -7.181  1.00 12.80     0.007 A 
ENDBRANCH  11  12
ENDBRANCH  10  11
ENDBRANCH   9  10
BRANCH   9  18
HETATM   18  C9  DPC A 466      -1.652  61.265  -9.087  1.00 12.20     0.125 C 
BRANCH  18  19
HETATM   19  C91 DPC A 466      -1.309  62.648  -9.667  1.00 11.35     0.015 C 
HETATM   20  C92 DPC A 466      -0.705  63.646  -8.662  1.00 10.72     0.006 C 
ENDBRANCH  18  19
ENDBRANCH   9  18
ENDBRANCH   5   7
BRANCH   4  21
HETATM   21  N5  DPC A 466      -2.115  58.437  -7.360  1.00  8.66    -0.351 N 
HETATM   22  C10 DPC A 466      -2.984  59.149  -6.627  1.00  8.96     0.214 C 
HETATM   23  O10 DPC A 466      -4.161  59.225  -6.936  1.00  8.83    -0.274 OA
HETATM   24  C11 DPC A 466      -2.426  59.821  -5.359  1.00  5.01     0.117 C 
ATOM     25  H5  DPC A 466      -1.137  58.443  -7.073  1.00  0.00     0.163 HD
ENDBRANCH   4  21
BRANCH   3  26
HETATM   26  NE  DPC A 466      -2.019  55.435  -7.661  1.00  7.66    -0.070 N 
ATOM     27  HE3 DPC A 466      -2.827  54.911  -7.996  1.00  0.00     0.275 HD
ATOM     28  HE2 DPC A 466      -1.367  54.656  -7.576  1.00  0.00     0.275 HD
ATOM     29  HE1 DPC A 466      -2.197  55.893  -6.767  1.00  0.00     0.275 HD
ENDBRANCH   3  26
BRANCH   1  30
HETATM   30  C1  DPC A 466      -1.956  55.925 -12.399  1.00 12.45     0.233 C 
HETATM   31  O1A DPC A 466      -2.605  54.915 -12.643  1.00 13.44    -0.642 OA
HETATM   32  O1B DPC A 466      -1.360  56.496 -13.302  1.00 11.63    -0.642 OA
ENDBRANCH   1  30
TORSDOF 9
