REMARK  9 active torsions:
REMARK  status: ('A' for Active; 'I' for Inactive)
REMARK    1  A    between atoms: C1_1  and  C2_4 
REMARK    2  A    between atoms: C4_6  and  NE_29 
REMARK    3  A    between atoms: C5_7  and  N5_8 
REMARK       I    between atoms: N5_8  and  C10_10 
REMARK    4  A    between atoms: C6_13  and  C7_15 
REMARK       I    between atoms: C7_15  and  N8_17 
REMARK    5  A    between atoms: N8_17  and  C81_18 
REMARK    6  A    between atoms: N8_17  and  C9_26 
REMARK    7  A    between atoms: C81_18  and  C82_19 
REMARK    8  A    between atoms: C82_19  and  CG_20 
REMARK    9  A    between atoms: C9_26  and  C91_27 
ROOT
HETATM    1  C2  DPC A 466      -3.019  62.416 -11.421  1.00  9.12     0.144 C 
HETATM    2  C3  DPC A 466      -1.972  63.024 -10.852  1.00  7.83     0.051 C 
HETATM    3  C4  DPC A 466      -1.407  62.523  -9.550  1.00  8.13     0.234 C 
HETATM    4  C5  DPC A 466      -1.880  61.109  -9.227  1.00  4.13     0.157 C 
HETATM    5  C6  DPC A 466      -3.370  60.997  -9.544  1.00  9.37     0.246 C 
HETATM    6  O6  DPC A 466      -3.626  61.363 -10.873  1.00 10.40    -0.328 OA
ENDROOT
BRANCH   5   7
HETATM    7  C7  DPC A 466      -3.799  59.549  -9.463  1.00 10.79     0.251 C 
HETATM    8  O7  DPC A 466      -4.504  59.406  -8.812  1.00  9.13    -0.270 OA
HETATM    9  N8  DPC A 466      -3.345  58.671 -10.346  1.00  9.99    -0.350 N 
BRANCH   9  10
HETATM   10  C81 DPC A 466      -3.891  57.299 -10.246  1.00  8.72     0.130 C 
BRANCH  10  11
HETATM   11  C82 DPC A 466      -3.822  56.542 -11.576  1.00  6.37     0.058 C 
BRANCH  11  12
HETATM   12  CG  DPC A 466      -2.641  55.592 -11.537  1.00 13.21    -0.057 A 
HETATM   13  CD1 DPC A 466      -1.452  55.901 -12.235  1.00 12.56     0.007 A 
HETATM   14  CE1 DPC A 466      -0.379  54.994 -12.261  1.00 14.24     0.001 A 
HETATM   15  CZ  DPC A 466      -0.487  53.769 -11.578  1.00 14.76     0.000 A 
HETATM   16  CE2 DPC A 466      -1.655  53.477 -10.861  1.00 12.57     0.001 A 
HETATM   17  CD2 DPC A 466      -2.722  54.380 -10.837  1.00 12.80     0.007 A 
ENDBRANCH  11  12
ENDBRANCH  10  11
ENDBRANCH   9  10
BRANCH   9  18
HETATM   18  C9  DPC A 466      -2.310  58.964 -11.335  1.00 12.20     0.125 C 
BRANCH  18  19
HETATM   19  C91 DPC A 466      -2.896  59.330 -12.709  1.00 11.35     0.015 C 
HETATM   20  C92 DPC A 466      -1.869  59.814 -13.750  1.00 10.72     0.006 C 
ENDBRANCH  18  19
ENDBRANCH   9  18
ENDBRANCH   5   7
BRANCH   4  21
HETATM   21  N5  DPC A 466      -1.675  60.845  -7.808  1.00  8.66    -0.351 N 
HETATM   22  C10 DPC A 466      -0.476  60.805  -7.205  1.00  8.96     0.214 C 
HETATM   23  O10 DPC A 466       0.557  60.947  -7.837  1.00  8.83    -0.274 OA
HETATM   24  C11 DPC A 466      -0.481  60.617  -5.677  1.00  5.01     0.117 C 
ATOM     25  H5  DPC A 466      -2.500  60.680  -7.232  1.00  0.00     0.163 HD
ENDBRANCH   4  21
BRANCH   3  26
HETATM   26  NE  DPC A 466       0.029  62.556  -9.619  1.00  7.66    -0.070 N 
ATOM     27  HE3 DPC A 466       0.461  62.607  -8.696  1.00  0.00     0.275 HD
ATOM     28  HE2 DPC A 466       0.424  61.662  -9.913  1.00  0.00     0.275 HD
ATOM     29  HE1 DPC A 466       0.316  63.325 -10.224  1.00  0.00     0.275 HD
ENDBRANCH   3  26
BRANCH   1  30
HETATM   30  C1  DPC A 466      -3.611  62.934 -12.667  1.00 12.45     0.233 C 
HETATM   31  O1A DPC A 466      -3.043  63.842 -13.261  1.00 13.44    -0.642 OA
HETATM   32  O1B DPC A 466      -4.596  62.405 -13.166  1.00 11.63    -0.642 OA
ENDBRANCH   1  30
TORSDOF 9
