OHT.pdb
  rDOCK(R)          3D
libRbt.so/2013.1/901 2013/11/27
 30 32  0  0  0  0  0  0  0  0999 V2000
   68.2550   30.0853   73.4626 C   0  0  0  0  0  0
   69.0349   30.6853   72.3251 C   0  0  0  0  0  0
   68.3224   31.8684   71.7032 C   0  0  0  0  0  0
   67.3792   31.4916   70.6064 C   0  0  0  0  0  0
   66.1015   30.9714   70.9031 C   0  0  0  0  0  0
   65.2043   30.6664   69.8791 C   0  0  0  0  0  0
   65.5432   30.8618   68.5547 C   0  0  0  0  0  0
   66.7843   31.3664   68.2474 C   0  0  0  0  0  0
   67.6924   31.6783   69.2656 C   0  0  0  0  0  0
   68.5308   33.1537   72.1146 C   0  0  0  0  0  0
   69.0646   34.2461   71.2207 C   0  0  0  0  0  0
   68.2096   35.2445   70.6579 C   0  0  0  0  0  0
   68.7234   36.2173   69.7883 C   0  0  0  0  0  0
   70.0953   36.2018   69.4733 C   0  0  0  0  0  0
   70.5671   37.1452   68.6101 O   0  0  0  0  0  0
   70.9505   35.2215   70.0260 C   0  0  0  0  0  0
   70.4215   34.2659   70.8844 C   0  0  0  0  0  0
   68.2669   33.5944   73.4877 C   0  0  0  0  0  0
   67.1112   34.2972   73.8200 C   0  0  0  0  0  0
   66.8365   34.6943   75.0983 C   0  0  0  0  0  0
   67.7304   34.3916   76.1128 C   0  0  0  0  0  0
   67.5154   34.7186   77.4210 O   0  0  0  0  0  0
   68.5996   34.7019   78.3448 C   0  0  0  0  0  0
   68.7840   36.1198   78.8138 C   0  0  0  0  0  0
   67.8205   36.5329   79.7969 N   0  0  0  0  0  0
   68.0885   35.9305   81.1036 C   0  0  0  0  0  0
   67.8681   37.9917   79.9485 C   0  0  0  0  0  0
   68.9089   33.6861   75.8139 C   0  0  0  0  0  0
   69.1598   33.3005   74.5270 C   0  0  0  0  0  0
   71.4904   37.2512   68.4909 H   0  0  0  0  0  0
  1  2  1  0  0  0
  2  3  1  0  0  0
  3  4  1  0  0  0
  3 10  1  0  0  0
  4  5  2  0  0  0
  4  9  1  0  0  0
  5  6  1  0  0  0
  6  7  2  0  0  0
  7  8  1  0  0  0
  8  9  2  0  0  0
 10 11  1  0  0  0
 10 18  1  0  0  0
 11 12  2  0  0  0
 11 17  1  0  0  0
 12 13  1  0  0  0
 13 14  2  0  0  0
 14 15  1  0  0  0
 14 16  1  0  0  0
 15 30  1  0  0  0
 16 17  2  0  0  0
 18 19  2  0  0  0
 18 29  1  0  0  0
 19 20  1  0  0  0
 20 21  2  0  0  0
 21 22  1  0  0  0
 21 28  1  0  0  0
 22 23  1  0  0  0
 23 24  1  0  0  0
 24 25  1  0  0  0
 25 26  1  0  0  0
 25 27  1  0  0  0
 28 29  2  0  0  0
M  END
>  <CHROM.0>
-2.29404021,-61.30345397,-126.55951559,-148.88488533

>  <CHROM.1>
-88.33986342,78.81200681,119.24839352,102.59271917,-101.09658140,169.87818951
-163.47289788,115.90798464,77.87784268,73.92486734,68.21145187,33.89763938
73.29130548,1.60464441,-1.06114857,-1.86807997

>  <FORMUL>
      OHT    C26 H29 N1 O2

>  <HET>
 OHT  A 600      29

>  <HETNAM>
     OHT 4-HYDROXYTAMOXIFEN

>  <Name>
OHT.pdb

>  <RI>
0

>  <Rbt.Current_Directory>
/home/malgorzata/Desktop/rDOCK_IFD/Wyniki/5_estrogen_receptor

>  <Rbt.Executable>
rbdock ($Id: //depot/dev/client3/rdock/2013.1/src/exe/rbdock.cxx#4 $)

>  <Rbt.Library>
libRbt.so (2013.1, Build901 2013/11/27)

>  <Rbt.Parameter_File>
/home/malgorzata/Desktop/rDock_2013.1_src/data/scripts/soft_docking.prm

>  <Rbt.Receptor>
cavity.prm

>  <SCORE>
-78.2903

>  <SCORE.INTER>
-16.2122

>  <SCORE.INTER.CONST>
1

>  <SCORE.INTER.POLAR>
-0.307324

>  <SCORE.INTER.REPUL>
0.219351

>  <SCORE.INTER.ROT>
9

>  <SCORE.INTER.VDW>
-30.664

>  <SCORE.INTER.norm>
-0.55904

>  <SCORE.INTRA>
-1.0974

>  <SCORE.INTRA.DIHEDRAL>
2.26834

>  <SCORE.INTRA.DIHEDRAL.0>
14.7815

>  <SCORE.INTRA.POLAR>
0

>  <SCORE.INTRA.POLAR.0>
0

>  <SCORE.INTRA.REPUL>
0

>  <SCORE.INTRA.REPUL.0>
0

>  <SCORE.INTRA.VDW>
-1.55107

>  <SCORE.INTRA.VDW.0>
-0.0652974

>  <SCORE.INTRA.norm>
-0.0378415

>  <SCORE.RESTR>
0

>  <SCORE.RESTR.CAVITY>
0

>  <SCORE.RESTR.norm>
0

>  <SCORE.SYSTEM>
-60.9808

>  <SCORE.SYSTEM.CONST>
0

>  <SCORE.SYSTEM.DIHEDRAL>
2.23116

>  <SCORE.SYSTEM.POLAR>
-0.139193

>  <SCORE.SYSTEM.REPUL>
0.150312

>  <SCORE.SYSTEM.VDW>
-62.3746

>  <SCORE.SYSTEM.norm>
-2.10279

>  <SCORE.heavy>
29

>  <SCORE.norm>
-2.69967

$$$$
OHT.pdb
  rDOCK(R)          3D
libRbt.so/2013.1/901 2013/11/27
 30 32  0  0  0  0  0  0  0  0999 V2000
   71.8225   37.2692   71.4381 C   0  0  0  0  0  0
   71.3404   35.8532   71.2809 C   0  0  0  0  0  0
   69.8286   35.7608   71.2694 C   0  0  0  0  0  0
   69.1601   36.9449   70.6486 C   0  0  0  0  0  0
   68.9929   38.1413   71.3778 C   0  0  0  0  0  0
   68.4130   39.2611   70.7808 C   0  0  0  0  0  0
   67.9867   39.2266   69.4677 C   0  0  0  0  0  0
   68.1405   38.0688   68.7429 C   0  0  0  0  0  0
   68.7226   36.9395   69.3297 C   0  0  0  0  0  0
   69.1517   34.6911   71.7815 C   0  0  0  0  0  0
   68.4477   33.6587   70.9353 C   0  0  0  0  0  0
   67.1578   33.9014   70.3683 C   0  0  0  0  0  0
   66.5033   32.9052   69.6296 C   0  0  0  0  0  0
   67.1313   31.6581   69.4505 C   0  0  0  0  0  0
   66.4665   30.6993   68.7459 O   0  0  0  0  0  0
   68.4076   31.4079   70.0039 C   0  0  0  0  0  0
   69.0385   32.4077   70.7334 C   0  0  0  0  0  0
   69.0302   34.4517   73.2227 C   0  0  0  0  0  0
   70.0299   33.8012   73.9421 C   0  0  0  0  0  0
   69.9453   33.5912   75.2896 C   0  0  0  0  0  0
   68.8306   34.0388   75.9803 C   0  0  0  0  0  0
   68.6834   33.9028   77.3310 O   0  0  0  0  0  0
   69.3897   32.8774   78.0228 C   0  0  0  0  0  0
   70.4220   33.5674   78.8729 C   0  0  0  0  0  0
   69.8985   34.6635   79.6413 N   0  0  0  0  0  0
   70.6762   34.8896   80.8604 C   0  0  0  0  0  0
   69.9416   35.8908   78.8382 C   0  0  0  0  0  0
   67.8003   34.6969   75.2865 C   0  0  0  0  0  0
   67.9096   34.8942   73.9385 C   0  0  0  0  0  0
   65.8546   30.1382   69.1803 H   0  0  0  0  0  0
  1  2  1  0  0  0
  2  3  1  0  0  0
  3  4  1  0  0  0
  3 10  1  0  0  0
  4  5  2  0  0  0
  4  9  1  0  0  0
  5  6  1  0  0  0
  6  7  2  0  0  0
  7  8  1  0  0  0
  8  9  2  0  0  0
 10 11  1  0  0  0
 10 18  1  0  0  0
 11 12  2  0  0  0
 11 17  1  0  0  0
 12 13  1  0  0  0
 13 14  2  0  0  0
 14 15  1  0  0  0
 14 16  1  0  0  0
 15 30  1  0  0  0
 16 17  2  0  0  0
 18 19  2  0  0  0
 18 29  1  0  0  0
 19 20  1  0  0  0
 20 21  2  0  0  0
 21 22  1  0  0  0
 21 28  1  0  0  0
 22 23  1  0  0  0
 23 24  1  0  0  0
 24 25  1  0  0  0
 25 26  1  0  0  0
 25 27  1  0  0  0
 28 29  2  0  0  0
M  END
>  <CHROM.0>
1.92383261,-62.84576372,4.66359448,-105.15986144

>  <CHROM.1>
33.05462767,-79.61858642,-107.56277102,-79.55272731,-83.73826486,-85.82390741
-24.02558507,110.96739946,48.27537862,152.89175430,68.95958758,34.79994704
73.11346023,-2.15941006,1.23419193,2.21497022

>  <FORMUL>
      OHT    C26 H29 N1 O2

>  <HET>
 OHT  A 600      29

>  <HETNAM>
     OHT 4-HYDROXYTAMOXIFEN

>  <Name>
OHT.pdb

>  <RI>
0

>  <Rbt.Current_Directory>
/home/malgorzata/Desktop/rDOCK_IFD/Wyniki/5_estrogen_receptor

>  <Rbt.Executable>
rbdock ($Id: //depot/dev/client3/rdock/2013.1/src/exe/rbdock.cxx#4 $)

>  <Rbt.Library>
libRbt.so (2013.1, Build901 2013/11/27)

>  <Rbt.Parameter_File>
/home/malgorzata/Desktop/rDock_2013.1_src/data/scripts/soft_docking.prm

>  <Rbt.Receptor>
cavity.prm

>  <SCORE>
-76.2662

>  <SCORE.INTER>
-24.0107

>  <SCORE.INTER.CONST>
1

>  <SCORE.INTER.POLAR>
0

>  <SCORE.INTER.REPUL>
0

>  <SCORE.INTER.ROT>
9

>  <SCORE.INTER.VDW>
-38.4107

>  <SCORE.INTER.norm>
-0.827955

>  <SCORE.INTRA>
1.59637

>  <SCORE.INTRA.DIHEDRAL>
7.02814

>  <SCORE.INTRA.DIHEDRAL.0>
14.7815

>  <SCORE.INTRA.POLAR>
0

>  <SCORE.INTRA.POLAR.0>
0

>  <SCORE.INTRA.REPUL>
0

>  <SCORE.INTRA.REPUL.0>
0

>  <SCORE.INTRA.VDW>
0.190745

>  <SCORE.INTRA.VDW.0>
-0.0652974

>  <SCORE.INTRA.norm>
0.0550473

>  <SCORE.RESTR>
0.368211

>  <SCORE.RESTR.CAVITY>
0.0736422

>  <SCORE.RESTR.norm>
0.0126969

>  <SCORE.SYSTEM>
-54.2201

>  <SCORE.SYSTEM.CONST>
0

>  <SCORE.SYSTEM.DIHEDRAL>
5.43966

>  <SCORE.SYSTEM.POLAR>
-0.0561415

>  <SCORE.SYSTEM.REPUL>
0.893808

>  <SCORE.SYSTEM.VDW>
-61.2181

>  <SCORE.SYSTEM.norm>
-1.86966

>  <SCORE.heavy>
29

>  <SCORE.norm>
-2.62987

$$$$
OHT.pdb
  rDOCK(R)          3D
libRbt.so/2013.1/901 2013/11/27
 30 32  0  0  0  0  0  0  0  0999 V2000
   71.7190   36.2850   69.5364 C   0  0  0  0  0  0
   70.9562   37.3979   70.2010 C   0  0  0  0  0  0
   69.6330   36.9266   70.7677 C   0  0  0  0  0  0
   69.7605   36.2139   72.0755 C   0  0  0  0  0  0
   69.6514   34.8087   72.1429 C   0  0  0  0  0  0
   69.8195   34.1413   73.3565 C   0  0  0  0  0  0
   70.0926   34.8359   74.5185 C   0  0  0  0  0  0
   70.2010   36.2054   74.4714 C   0  0  0  0  0  0
   70.0365   36.8862   73.2599 C   0  0  0  0  0  0
   68.4423   37.1388   70.1339 C   0  0  0  0  0  0
   68.0154   38.4726   69.5717 C   0  0  0  0  0  0
   66.8462   38.6090   68.7600 C   0  0  0  0  0  0
   66.5014   39.8507   68.2071 C   0  0  0  0  0  0
   67.3207   40.9671   68.4601 C   0  0  0  0  0  0
   66.9758   42.1585   67.8952 O   0  0  0  0  0  0
   68.4773   40.8447   69.2635 C   0  0  0  0  0  0
   68.8020   39.6055   69.8008 C   0  0  0  0  0  0
   67.4460   36.0786   69.9525 C   0  0  0  0  0  0
   67.7720   34.8648   69.3523 C   0  0  0  0  0  0
   66.8634   33.8561   69.1971 C   0  0  0  0  0  0
   65.5661   34.0317   69.6512 C   0  0  0  0  0  0
   64.6074   33.0629   69.5688 O   0  0  0  0  0  0
   64.9752   31.6899   69.6615 C   0  0  0  0  0  0
   65.1523   31.3922   71.1258 C   0  0  0  0  0  0
   64.0733   30.6324   71.6953 N   0  0  0  0  0  0
   64.3862   29.2036   71.7471 C   0  0  0  0  0  0
   63.8173   31.0934   73.0647 C   0  0  0  0  0  0
   65.2004   35.2451   70.2595 C   0  0  0  0  0  0
   66.1284   36.2382   70.4024 C   0  0  0  0  0  0
   66.8898   42.2285   66.9648 H   0  0  0  0  0  0
  1  2  1  0  0  0
  2  3  1  0  0  0
  3  4  1  0  0  0
  3 10  1  0  0  0
  4  5  2  0  0  0
  4  9  1  0  0  0
  5  6  1  0  0  0
  6  7  2  0  0  0
  7  8  1  0  0  0
  8  9  2  0  0  0
 10 11  1  0  0  0
 10 18  1  0  0  0
 11 12  2  0  0  0
 11 17  1  0  0  0
 12 13  1  0  0  0
 13 14  2  0  0  0
 14 15  1  0  0  0
 14 16  1  0  0  0
 15 30  1  0  0  0
 16 17  2  0  0  0
 18 19  2  0  0  0
 18 29  1  0  0  0
 19 20  1  0  0  0
 20 21  2  0  0  0
 21 22  1  0  0  0
 21 28  1  0  0  0
 22 23  1  0  0  0
 23 24  1  0  0  0
 24 25  1  0  0  0
 25 26  1  0  0  0
 25 27  1  0  0  0
 28 29  2  0  0  0
M  END
>  <CHROM.0>
3.11832401,-62.04720412,-174.48311798,26.75544507

>  <CHROM.1>
79.04244301,-104.00761060,-47.99595847,171.36163079,-54.04814667,-57.67298372
31.90711851,80.10472227,104.99745178,97.03681698,67.50311874,35.75779220
70.60777670,-1.10364287,0.54983222,2.63886249

>  <FORMUL>
      OHT    C26 H29 N1 O2

>  <HET>
 OHT  A 600      29

>  <HETNAM>
     OHT 4-HYDROXYTAMOXIFEN

>  <Name>
OHT.pdb

>  <RI>
0

>  <Rbt.Current_Directory>
/home/malgorzata/Desktop/rDOCK_IFD/Wyniki/5_estrogen_receptor

>  <Rbt.Executable>
rbdock ($Id: //depot/dev/client3/rdock/2013.1/src/exe/rbdock.cxx#4 $)

>  <Rbt.Library>
libRbt.so (2013.1, Build901 2013/11/27)

>  <Rbt.Parameter_File>
/home/malgorzata/Desktop/rDock_2013.1_src/data/scripts/soft_docking.prm

>  <Rbt.Receptor>
cavity.prm

>  <SCORE>
-80.2815

>  <SCORE.INTER>
-23.3666

>  <SCORE.INTER.CONST>
1

>  <SCORE.INTER.POLAR>
-0.2353

>  <SCORE.INTER.REPUL>
0.143722

>  <SCORE.INTER.ROT>
9

>  <SCORE.INTER.VDW>
-37.6852

>  <SCORE.INTER.norm>
-0.805746

>  <SCORE.INTRA>
-0.611592

>  <SCORE.INTRA.DIHEDRAL>
6.15415

>  <SCORE.INTRA.DIHEDRAL.0>
14.7815

>  <SCORE.INTRA.POLAR>
0

>  <SCORE.INTRA.POLAR.0>
0

>  <SCORE.INTRA.REPUL>
0

>  <SCORE.INTRA.REPUL.0>
0

>  <SCORE.INTRA.VDW>
-1.84242

>  <SCORE.INTRA.VDW.0>
-0.0652974

>  <SCORE.INTRA.norm>
-0.0210894

>  <SCORE.RESTR>
3.32235

>  <SCORE.RESTR.CAVITY>
0.66447

>  <SCORE.RESTR.norm>
0.114564

>  <SCORE.SYSTEM>
-59.6257

>  <SCORE.SYSTEM.CONST>
0

>  <SCORE.SYSTEM.DIHEDRAL>
1.92667

>  <SCORE.SYSTEM.POLAR>
-0.0951473

>  <SCORE.SYSTEM.REPUL>
0.394509

>  <SCORE.SYSTEM.VDW>
-62.238

>  <SCORE.SYSTEM.norm>
-2.05606

>  <SCORE.heavy>
29

>  <SCORE.norm>
-2.76833

$$$$
OHT.pdb
  rDOCK(R)          3D
libRbt.so/2013.1/901 2013/11/27
 30 32  0  0  0  0  0  0  0  0999 V2000
   65.4787   34.1055   67.5595 C   0  0  0  0  0  0
   65.7740   35.2642   68.4720 C   0  0  0  0  0  0
   66.9529   34.9902   69.3825 C   0  0  0  0  0  0
   67.9800   36.0763   69.3772 C   0  0  0  0  0  0
   67.6477   37.3829   69.7935 C   0  0  0  0  0  0
   68.6195   38.3832   69.8344 C   0  0  0  0  0  0
   69.9249   38.1223   69.4671 C   0  0  0  0  0  0
   70.2659   36.8553   69.0575 C   0  0  0  0  0  0
   69.3008   35.8428   69.0141 C   0  0  0  0  0  0
   67.0563   33.8538   70.1327 C   0  0  0  0  0  0
   66.9380   32.4597   69.5671 C   0  0  0  0  0  0
   67.1726   32.1853   68.1836 C   0  0  0  0  0  0
   67.0046   30.8898   67.6739 C   0  0  0  0  0  0
   66.6011   29.8570   68.5412 C   0  0  0  0  0  0
   66.4251   28.6107   68.0182 O   0  0  0  0  0  0
   66.3692   30.1160   69.9112 C   0  0  0  0  0  0
   66.5401   31.4065   70.3961 C   0  0  0  0  0  0
   67.2788   33.8833   71.5814 C   0  0  0  0  0  0
   66.3172   34.3797   72.4583 C   0  0  0  0  0  0
   66.4967   34.3923   73.8128 C   0  0  0  0  0  0
   67.6731   33.8937   74.3490 C   0  0  0  0  0  0
   67.9174   33.8353   75.6911 O   0  0  0  0  0  0
   68.3135   35.0100   76.3928 C   0  0  0  0  0  0
   69.8169   34.9874   76.4508 C   0  0  0  0  0  0
   70.3407   34.7532   77.7686 N   0  0  0  0  0  0
   69.5060   35.3709   78.8000 C   0  0  0  0  0  0
   70.3921   33.3097   78.0271 C   0  0  0  0  0  0
   68.6673   33.3872   73.4940 C   0  0  0  0  0  0
   68.4628   33.3862   72.1427 C   0  0  0  0  0  0
   65.5762   28.2143   68.0276 H   0  0  0  0  0  0
  1  2  1  0  0  0
  2  3  1  0  0  0
  3  4  1  0  0  0
  3 10  1  0  0  0
  4  5  2  0  0  0
  4  9  1  0  0  0
  5  6  1  0  0  0
  6  7  2  0  0  0
  7  8  1  0  0  0
  8  9  2  0  0  0
 10 11  1  0  0  0
 10 18  1  0  0  0
 11 12  2  0  0  0
 11 17  1  0  0  0
 12 13  1  0  0  0
 13 14  2  0  0  0
 14 15  1  0  0  0
 14 16  1  0  0  0
 15 30  1  0  0  0
 16 17  2  0  0  0
 18 19  2  0  0  0
 18 29  1  0  0  0
 19 20  1  0  0  0
 20 21  2  0  0  0
 21 22  1  0  0  0
 21 28  1  0  0  0
 22 23  1  0  0  0
 23 24  1  0  0  0
 24 25  1  0  0  0
 25 26  1  0  0  0
 25 27  1  0  0  0
 28 29  2  0  0  0
M  END
>  <CHROM.0>
-30.49918047,-61.35527265,139.12676650,-35.73336098

>  <CHROM.1>
129.61764150,61.33155201,53.10124075,22.32073957,66.60750196,-116.47800638
-78.61141263,-95.20951439,-110.27755784,-34.94594283,67.84368951,33.99995979
71.65356049,-2.48131599,1.21324440,2.20874587

>  <FORMUL>
      OHT    C26 H29 N1 O2

>  <HET>
 OHT  A 600      29

>  <HETNAM>
     OHT 4-HYDROXYTAMOXIFEN

>  <Name>
OHT.pdb

>  <RI>
0

>  <Rbt.Current_Directory>
/home/malgorzata/Desktop/rDOCK_IFD/Wyniki/5_estrogen_receptor

>  <Rbt.Executable>
rbdock ($Id: //depot/dev/client3/rdock/2013.1/src/exe/rbdock.cxx#4 $)

>  <Rbt.Library>
libRbt.so (2013.1, Build901 2013/11/27)

>  <Rbt.Parameter_File>
/home/malgorzata/Desktop/rDock_2013.1_src/data/scripts/soft_docking.prm

>  <Rbt.Receptor>
cavity.prm

>  <SCORE>
-75.8217

>  <SCORE.INTER>
-28.7113

>  <SCORE.INTER.CONST>
1

>  <SCORE.INTER.POLAR>
-0.666377

>  <SCORE.INTER.REPUL>
0

>  <SCORE.INTER.ROT>
9

>  <SCORE.INTER.VDW>
-40.8456

>  <SCORE.INTER.norm>
-0.990045

>  <SCORE.INTRA>
13.5131

>  <SCORE.INTRA.DIHEDRAL>
10.3622

>  <SCORE.INTRA.DIHEDRAL.0>
14.7815

>  <SCORE.INTRA.POLAR>
0

>  <SCORE.INTRA.POLAR.0>
0

>  <SCORE.INTRA.REPUL>
0

>  <SCORE.INTRA.REPUL.0>
0

>  <SCORE.INTRA.VDW>
11.4406

>  <SCORE.INTRA.VDW.0>
-0.0652974

>  <SCORE.INTRA.norm>
0.465967

>  <SCORE.RESTR>
0

>  <SCORE.RESTR.CAVITY>
0

>  <SCORE.RESTR.norm>
0

>  <SCORE.SYSTEM>
-60.6235

>  <SCORE.SYSTEM.CONST>
0

>  <SCORE.SYSTEM.DIHEDRAL>
2.58893

>  <SCORE.SYSTEM.POLAR>
-0.135901

>  <SCORE.SYSTEM.REPUL>
0.15157

>  <SCORE.SYSTEM.VDW>
-62.2137

>  <SCORE.SYSTEM.norm>
-2.09046

>  <SCORE.heavy>
29

>  <SCORE.norm>
-2.61454

$$$$
OHT.pdb
  rDOCK(R)          3D
libRbt.so/2013.1/901 2013/11/27
 30 32  0  0  0  0  0  0  0  0999 V2000
   68.4526   32.3839   74.1898 C   0  0  0  0  0  0
   67.2936   33.2059   73.6965 C   0  0  0  0  0  0
   66.6821   32.6341   72.4343 C   0  0  0  0  0  0
   65.6945   31.5411   72.6883 C   0  0  0  0  0  0
   65.8449   30.6781   73.7945 C   0  0  0  0  0  0
   64.8957   29.6900   74.0578 C   0  0  0  0  0  0
   63.7912   29.5297   73.2444 C   0  0  0  0  0  0
   63.6296   30.3607   72.1615 C   0  0  0  0  0  0
   64.5735   31.3570   71.8880 C   0  0  0  0  0  0
   67.0105   33.0832   71.1872 C   0  0  0  0  0  0
   67.2727   32.1767   70.0095 C   0  0  0  0  0  0
   68.5956   31.7679   69.6531 C   0  0  0  0  0  0
   68.8157   30.9677   68.5227 C   0  0  0  0  0  0
   67.7168   30.5687   67.7386 C   0  0  0  0  0  0
   67.9582   29.8081   66.6337 O   0  0  0  0  0  0
   66.4043   30.9644   68.0831 C   0  0  0  0  0  0
   66.2078   31.7581   69.2061 C   0  0  0  0  0  0
   67.1571   34.5083   70.8760 C   0  0  0  0  0  0
   68.4033   35.1303   70.8703 C   0  0  0  0  0  0
   68.5621   36.4513   70.5586 C   0  0  0  0  0  0
   67.4515   37.2124   70.2313 C   0  0  0  0  0  0
   67.5259   38.5278   69.8723 O   0  0  0  0  0  0
   67.9846   38.8843   68.5718 C   0  0  0  0  0  0
   68.6065   40.2489   68.6964 C   0  0  0  0  0  0
   67.6529   41.3237   68.6606 N   0  0  0  0  0  0
   68.2655   42.6026   69.0225 C   0  0  0  0  0  0
   67.1037   41.4479   67.3055 C   0  0  0  0  0  0
   66.1773   36.6188   70.2296 C   0  0  0  0  0  0
   66.0459   35.2955   70.5452 C   0  0  0  0  0  0
   67.5853   28.9513   66.5641 H   0  0  0  0  0  0
  1  2  1  0  0  0
  2  3  1  0  0  0
  3  4  1  0  0  0
  3 10  1  0  0  0
  4  5  2  0  0  0
  4  9  1  0  0  0
  5  6  1  0  0  0
  6  7  2  0  0  0
  7  8  1  0  0  0
  8  9  2  0  0  0
 10 11  1  0  0  0
 10 18  1  0  0  0
 11 12  2  0  0  0
 11 17  1  0  0  0
 12 13  1  0  0  0
 13 14  2  0  0  0
 14 15  1  0  0  0
 14 16  1  0  0  0
 15 30  1  0  0  0
 16 17  2  0  0  0
 18 19  2  0  0  0
 18 29  1  0  0  0
 19 20  1  0  0  0
 20 21  2  0  0  0
 21 22  1  0  0  0
 21 28  1  0  0  0
 22 23  1  0  0  0
 23 24  1  0  0  0
 24 25  1  0  0  0
 25 26  1  0  0  0
 25 27  1  0  0  0
 28 29  2  0  0  0
M  END
>  <CHROM.0>
-44.27328887,-59.77932794,-73.18193641,66.20401906

>  <CHROM.1>
83.36931302,-31.74454050,136.40232913,-95.08764521,96.70289423,119.45255697
75.79119937,-151.81279889,-82.27136864,169.78849340,66.99490970,34.27785692
70.45108045,2.13990054,-1.23151857,-2.87715888

>  <FORMUL>
      OHT    C26 H29 N1 O2

>  <HET>
 OHT  A 600      29

>  <HETNAM>
     OHT 4-HYDROXYTAMOXIFEN

>  <Name>
OHT.pdb

>  <RI>
0

>  <Rbt.Current_Directory>
/home/malgorzata/Desktop/rDOCK_IFD/Wyniki/5_estrogen_receptor

>  <Rbt.Executable>
rbdock ($Id: //depot/dev/client3/rdock/2013.1/src/exe/rbdock.cxx#4 $)

>  <Rbt.Library>
libRbt.so (2013.1, Build901 2013/11/27)

>  <Rbt.Parameter_File>
/home/malgorzata/Desktop/rDock_2013.1_src/data/scripts/soft_docking.prm

>  <Rbt.Receptor>
cavity.prm

>  <SCORE>
-83.1043

>  <SCORE.INTER>
-22.1215

>  <SCORE.INTER.CONST>
1

>  <SCORE.INTER.POLAR>
-0.181229

>  <SCORE.INTER.REPUL>
0.693892

>  <SCORE.INTER.ROT>
9

>  <SCORE.INTER.VDW>
-39.3748

>  <SCORE.INTER.norm>
-0.762812

>  <SCORE.INTRA>
-0.336205

>  <SCORE.INTRA.DIHEDRAL>
6.70615

>  <SCORE.INTRA.DIHEDRAL.0>
14.7815

>  <SCORE.INTRA.POLAR>
0

>  <SCORE.INTRA.POLAR.0>
0

>  <SCORE.INTRA.REPUL>
0

>  <SCORE.INTRA.REPUL.0>
0

>  <SCORE.INTRA.VDW>
-1.67743

>  <SCORE.INTRA.VDW.0>
-0.0652974

>  <SCORE.INTRA.norm>
-0.0115933

>  <SCORE.RESTR>
0

>  <SCORE.RESTR.CAVITY>
0

>  <SCORE.RESTR.norm>
0

>  <SCORE.SYSTEM>
-60.6466

>  <SCORE.SYSTEM.CONST>
0

>  <SCORE.SYSTEM.DIHEDRAL>
4.95909

>  <SCORE.SYSTEM.POLAR>
-0.245225

>  <SCORE.SYSTEM.REPUL>
0.101494

>  <SCORE.SYSTEM.VDW>
-62.7998

>  <SCORE.SYSTEM.norm>
-2.09126

>  <SCORE.heavy>
29

>  <SCORE.norm>
-2.86567

$$$$
OHT.pdb
  rDOCK(R)          3D
libRbt.so/2013.1/901 2013/11/27
 30 32  0  0  0  0  0  0  0  0999 V2000
   64.9406   36.7981   70.1158 C   0  0  0  0  0  0
   65.8754   35.9679   69.2796 C   0  0  0  0  0  0
   67.0373   35.4261   70.0863 C   0  0  0  0  0  0
   68.2495   36.3001   70.0533 C   0  0  0  0  0  0
   68.9101   36.6596   71.2472 C   0  0  0  0  0  0
   70.0696   37.4348   71.2109 C   0  0  0  0  0  0
   70.5964   37.8710   70.0111 C   0  0  0  0  0  0
   69.9650   37.5312   68.8384 C   0  0  0  0  0  0
   68.8025   36.7524   68.8615 C   0  0  0  0  0  0
   66.9712   34.2485   70.7744 C   0  0  0  0  0  0
   66.5444   32.9383   70.1590 C   0  0  0  0  0  0
   65.3488   32.8241   69.3833 C   0  0  0  0  0  0
   64.9482   31.5834   68.8669 C   0  0  0  0  0  0
   65.7381   30.4460   69.1204 C   0  0  0  0  0  0
   65.3174   29.2481   68.6249 O   0  0  0  0  0  0
   66.9236   30.5476   69.8834 C   0  0  0  0  0  0
   67.3022   31.7857   70.3870 C   0  0  0  0  0  0
   67.2978   34.1494   72.2002 C   0  0  0  0  0  0
   68.5705   33.7869   72.6346 C   0  0  0  0  0  0
   68.9000   33.7133   73.9587 C   0  0  0  0  0  0
   67.9436   34.0101   74.9164 C   0  0  0  0  0  0
   68.1993   33.9969   76.2577 O   0  0  0  0  0  0
   69.3246   34.7018   76.7733 C   0  0  0  0  0  0
   69.4125   34.3571   78.2354 C   0  0  0  0  0  0
   68.3695   34.9445   79.0310 N   0  0  0  0  0  0
   68.6700   34.8644   80.4612 C   0  0  0  0  0  0
   68.2184   36.3600   78.6749 C   0  0  0  0  0  0
   66.6475   34.3769   74.5148 C   0  0  0  0  0  0
   66.3437   34.4428   73.1839 C   0  0  0  0  0  0
   64.8216   28.6654   69.1659 H   0  0  0  0  0  0
  1  2  1  0  0  0
  2  3  1  0  0  0
  3  4  1  0  0  0
  3 10  1  0  0  0
  4  5  2  0  0  0
  4  9  1  0  0  0
  5  6  1  0  0  0
  6  7  2  0  0  0
  7  8  1  0  0  0
  8  9  2  0  0  0
 10 11  1  0  0  0
 10 18  1  0  0  0
 11 12  2  0  0  0
 11 17  1  0  0  0
 12 13  1  0  0  0
 13 14  2  0  0  0
 14 15  1  0  0  0
 14 16  1  0  0  0
 15 30  1  0  0  0
 16 17  2  0  0  0
 18 19  2  0  0  0
 18 29  1  0  0  0
 19 20  1  0  0  0
 20 21  2  0  0  0
 21 22  1  0  0  0
 21 28  1  0  0  0
 22 23  1  0  0  0
 23 24  1  0  0  0
 24 25  1  0  0  0
 25 26  1  0  0  0
 25 27  1  0  0  0
 28 29  2  0  0  0
M  END
>  <CHROM.0>
105.25215640,-61.07524611,-38.14564189,-23.03698316

>  <CHROM.1>
-92.83011509,130.71494073,52.66004377,-49.58780464,-94.42773181,-95.54153889
50.41176788,-173.54848061,-71.05441940,-165.96911376,67.62198996,34.40008023
72.44217922,-2.09884381,1.09106055,1.85175999

>  <FORMUL>
      OHT    C26 H29 N1 O2

>  <HET>
 OHT  A 600      29

>  <HETNAM>
     OHT 4-HYDROXYTAMOXIFEN

>  <Name>
OHT.pdb

>  <RI>
0

>  <Rbt.Current_Directory>
/home/malgorzata/Desktop/rDOCK_IFD/Wyniki/5_estrogen_receptor

>  <Rbt.Executable>
rbdock ($Id: //depot/dev/client3/rdock/2013.1/src/exe/rbdock.cxx#4 $)

>  <Rbt.Library>
libRbt.so (2013.1, Build901 2013/11/27)

>  <Rbt.Parameter_File>
/home/malgorzata/Desktop/rDock_2013.1_src/data/scripts/soft_docking.prm

>  <Rbt.Receptor>
cavity.prm

>  <SCORE>
-83.8931

>  <SCORE.INTER>
-24.1108

>  <SCORE.INTER.CONST>
1

>  <SCORE.INTER.POLAR>
-0.0891517

>  <SCORE.INTER.REPUL>
0

>  <SCORE.INTER.ROT>
9

>  <SCORE.INTER.VDW>
-38.2077

>  <SCORE.INTER.norm>
-0.831407

>  <SCORE.INTRA>
1.60132

>  <SCORE.INTRA.DIHEDRAL>
0.832192

>  <SCORE.INTRA.DIHEDRAL.0>
14.7815

>  <SCORE.INTRA.POLAR>
0

>  <SCORE.INTRA.POLAR.0>
0

>  <SCORE.INTRA.REPUL>
0

>  <SCORE.INTRA.REPUL.0>
0

>  <SCORE.INTRA.VDW>
1.43488

>  <SCORE.INTRA.VDW.0>
-0.0652974

>  <SCORE.INTRA.norm>
0.0552178

>  <SCORE.RESTR>
0

>  <SCORE.RESTR.CAVITY>
0

>  <SCORE.RESTR.norm>
0

>  <SCORE.SYSTEM>
-61.3836

>  <SCORE.SYSTEM.CONST>
0

>  <SCORE.SYSTEM.DIHEDRAL>
1.69844

>  <SCORE.SYSTEM.POLAR>
-0.154057

>  <SCORE.SYSTEM.REPUL>
0.144418

>  <SCORE.SYSTEM.VDW>
-62.4311

>  <SCORE.SYSTEM.norm>
-2.11668

>  <SCORE.heavy>
29

>  <SCORE.norm>
-2.89287

$$$$
OHT.pdb
  rDOCK(R)          3D
libRbt.so/2013.1/901 2013/11/27
 30 32  0  0  0  0  0  0  0  0999 V2000
   66.3952   34.6783   70.4287 C   0  0  0  0  0  0
   67.6376   33.8305   70.4261 C   0  0  0  0  0  0
   68.3506   33.8551   71.7621 C   0  0  0  0  0  0
   69.5356   34.7658   71.7929 C   0  0  0  0  0  0
   70.7961   34.3221   71.3399 C   0  0  0  0  0  0
   71.8895   35.1886   71.3235 C   0  0  0  0  0  0
   71.7676   36.4961   71.7512 C   0  0  0  0  0  0
   70.5472   36.9447   72.1971 C   0  0  0  0  0  0
   69.4424   36.0859   72.2165 C   0  0  0  0  0  0
   67.9399   33.1105   72.8306 C   0  0  0  0  0  0
   67.4570   31.6846   72.7254 C   0  0  0  0  0  0
   67.9733   30.7847   71.7416 C   0  0  0  0  0  0
   67.4694   29.4807   71.6318 C   0  0  0  0  0  0
   66.4457   29.0638   72.5036 C   0  0  0  0  0  0
   65.9585   27.7986   72.3641 O   0  0  0  0  0  0
   65.9297   29.9439   73.4820 C   0  0  0  0  0  0
   66.4417   31.2320   73.5734 C   0  0  0  0  0  0
   67.9140   33.6404   74.1973 C   0  0  0  0  0  0
   69.0808   34.0232   74.8546 C   0  0  0  0  0  0
   69.0737   34.5421   76.1187 C   0  0  0  0  0  0
   67.8683   34.7017   76.7830 C   0  0  0  0  0  0
   67.7689   35.2456   78.0316 O   0  0  0  0  0  0
   68.0480   36.6285   78.2283 C   0  0  0  0  0  0
   67.5555   36.9725   79.6079 C   0  0  0  0  0  0
   66.2795   36.3930   79.9269 N   0  0  0  0  0  0
   66.4226   35.0618   80.5182 C   0  0  0  0  0  0
   65.5792   37.2482   80.8921 C   0  0  0  0  0  0
   66.6707   34.3234   76.1517 C   0  0  0  0  0  0
   66.7054   33.8068   74.8868 C   0  0  0  0  0  0
   66.5086   27.0621   72.5456 H   0  0  0  0  0  0
  1  2  1  0  0  0
  2  3  1  0  0  0
  3  4  1  0  0  0
  3 10  1  0  0  0
  4  5  2  0  0  0
  4  9  1  0  0  0
  5  6  1  0  0  0
  6  7  2  0  0  0
  7  8  1  0  0  0
  8  9  2  0  0  0
 10 11  1  0  0  0
 10 18  1  0  0  0
 11 12  2  0  0  0
 11 17  1  0  0  0
 12 13  1  0  0  0
 13 14  2  0  0  0
 14 15  1  0  0  0
 14 16  1  0  0  0
 15 30  1  0  0  0
 16 17  2  0  0  0
 18 19  2  0  0  0
 18 29  1  0  0  0
 19 20  1  0  0  0
 20 21  2  0  0  0
 21 22  1  0  0  0
 21 28  1  0  0  0
 22 23  1  0  0  0
 23 24  1  0  0  0
 24 25  1  0  0  0
 25 26  1  0  0  0
 25 27  1  0  0  0
 28 29  2  0  0  0
M  END
>  <CHROM.0>
-160.82434117,-60.48951391,97.59638486,-83.79735104

>  <CHROM.1>
-100.84818483,-84.73226880,40.95146547,32.19103516,-64.01297522,66.05959615
68.52934442,167.52613043,-42.32063968,88.78032061,67.91013703,33.86736864
74.37886829,-1.38807797,0.92525505,0.90875754

>  <FORMUL>
      OHT    C26 H29 N1 O2

>  <HET>
 OHT  A 600      29

>  <HETNAM>
     OHT 4-HYDROXYTAMOXIFEN

>  <Name>
OHT.pdb

>  <RI>
0

>  <Rbt.Current_Directory>
/home/malgorzata/Desktop/rDOCK_IFD/Wyniki/5_estrogen_receptor

>  <Rbt.Executable>
rbdock ($Id: //depot/dev/client3/rdock/2013.1/src/exe/rbdock.cxx#4 $)

>  <Rbt.Library>
libRbt.so (2013.1, Build901 2013/11/27)

>  <Rbt.Parameter_File>
/home/malgorzata/Desktop/rDock_2013.1_src/data/scripts/soft_docking.prm

>  <Rbt.Receptor>
cavity.prm

>  <SCORE>
-70.383

>  <SCORE.INTER>
-14.1988

>  <SCORE.INTER.CONST>
1

>  <SCORE.INTER.POLAR>
-0.249859

>  <SCORE.INTER.REPUL>
0

>  <SCORE.INTER.ROT>
9

>  <SCORE.INTER.VDW>
-27.7493

>  <SCORE.INTER.norm>
-0.489615

>  <SCORE.INTRA>
-1.7576

>  <SCORE.INTRA.DIHEDRAL>
3.00643

>  <SCORE.INTRA.DIHEDRAL.0>
14.7815

>  <SCORE.INTRA.POLAR>
0

>  <SCORE.INTRA.POLAR.0>
0

>  <SCORE.INTRA.REPUL>
0

>  <SCORE.INTRA.REPUL.0>
0

>  <SCORE.INTRA.VDW>
-2.35889

>  <SCORE.INTRA.VDW.0>
-0.0652974

>  <SCORE.INTRA.norm>
-0.060607

>  <SCORE.RESTR>
5.08211

>  <SCORE.RESTR.CAVITY>
1.01642

>  <SCORE.RESTR.norm>
0.175245

>  <SCORE.SYSTEM>
-59.5086

>  <SCORE.SYSTEM.CONST>
0

>  <SCORE.SYSTEM.DIHEDRAL>
5.70558

>  <SCORE.SYSTEM.POLAR>
-0.194603

>  <SCORE.SYSTEM.REPUL>
0.12684

>  <SCORE.SYSTEM.VDW>
-62.334

>  <SCORE.SYSTEM.norm>
-2.05202

>  <SCORE.heavy>
29

>  <SCORE.norm>
-2.427

$$$$
OHT.pdb
  rDOCK(R)          3D
libRbt.so/2013.1/901 2013/11/27
 30 32  0  0  0  0  0  0  0  0999 V2000
   64.0655   33.2245   73.1174 C   0  0  0  0  0  0
   64.8489   34.5077   73.0751 C   0  0  0  0  0  0
   66.2526   34.3045   72.5436 C   0  0  0  0  0  0
   67.2717   34.0768   73.6132 C   0  0  0  0  0  0
   67.5766   32.7702   74.0501 C   0  0  0  0  0  0
   68.5630   32.5562   75.0135 C   0  0  0  0  0  0
   69.2609   33.6131   75.5640 C   0  0  0  0  0  0
   68.9758   34.8928   75.1509 C   0  0  0  0  0  0
   67.9902   35.1203   74.1839 C   0  0  0  0  0  0
   66.5466   34.3295   71.2104 C   0  0  0  0  0  0
   66.4177   33.1338   70.2987 C   0  0  0  0  0  0
   65.3005   32.9723   69.4212 C   0  0  0  0  0  0
   65.1793   31.8258   68.6228 C   0  0  0  0  0  0
   66.1727   30.8309   68.6935 C   0  0  0  0  0  0
   66.0224   29.7168   67.9229 O   0  0  0  0  0  0
   67.2830   30.9812   69.5552 C   0  0  0  0  0  0
   67.3837   32.1239   70.3388 C   0  0  0  0  0  0
   67.0380   35.5338   70.5340 C   0  0  0  0  0  0
   67.6871   35.4673   69.3035 C   0  0  0  0  0  0
   68.1296   36.5808   68.6467 C   0  0  0  0  0  0
   67.9301   37.8299   69.2123 C   0  0  0  0  0  0
   68.3077   38.9940   68.6066 O   0  0  0  0  0  0
   67.3574   40.0388   68.4209 C   0  0  0  0  0  0
   68.0698   41.1388   67.6814 C   0  0  0  0  0  0
   67.3343   42.3727   67.6330 N   0  0  0  0  0  0
   67.3268   43.0491   68.9309 C   0  0  0  0  0  0
   67.9506   43.2736   66.6524 C   0  0  0  0  0  0
   67.2812   37.9352   70.4548 C   0  0  0  0  0  0
   66.8483   36.8058   71.0911 C   0  0  0  0  0  0
   66.7181   29.0922   67.8616 H   0  0  0  0  0  0
  1  2  1  0  0  0
  2  3  1  0  0  0
  3  4  1  0  0  0
  3 10  1  0  0  0
  4  5  2  0  0  0
  4  9  1  0  0  0
  5  6  1  0  0  0
  6  7  2  0  0  0
  7  8  1  0  0  0
  8  9  2  0  0  0
 10 11  1  0  0  0
 10 18  1  0  0  0
 11 12  2  0  0  0
 11 17  1  0  0  0
 12 13  1  0  0  0
 13 14  2  0  0  0
 14 15  1  0  0  0
 14 16  1  0  0  0
 15 30  1  0  0  0
 16 17  2  0  0  0
 18 19  2  0  0  0
 18 29  1  0  0  0
 19 20  1  0  0  0
 20 21  2  0  0  0
 21 22  1  0  0  0
 21 28  1  0  0  0
 22 23  1  0  0  0
 23 24  1  0  0  0
 24 25  1  0  0  0
 25 26  1  0  0  0
 25 27  1  0  0  0
 28 29  2  0  0  0
M  END
>  <CHROM.0>
0.92365117,-59.83056992,8.67741933,127.30986533

>  <CHROM.1>
-93.60498116,90.81487100,-84.95368307,101.06105695,161.32560257,171.88778679
126.45506914,-177.58110767,-168.78843970,72.99089234,67.10533315,35.60710967
70.60011278,-1.94143212,-1.29721920,-0.75252861

>  <FORMUL>
      OHT    C26 H29 N1 O2

>  <HET>
 OHT  A 600      29

>  <HETNAM>
     OHT 4-HYDROXYTAMOXIFEN

>  <Name>
OHT.pdb

>  <RI>
0

>  <Rbt.Current_Directory>
/home/malgorzata/Desktop/rDOCK_IFD/Wyniki/5_estrogen_receptor

>  <Rbt.Executable>
rbdock ($Id: //depot/dev/client3/rdock/2013.1/src/exe/rbdock.cxx#4 $)

>  <Rbt.Library>
libRbt.so (2013.1, Build901 2013/11/27)

>  <Rbt.Parameter_File>
/home/malgorzata/Desktop/rDock_2013.1_src/data/scripts/soft_docking.prm

>  <Rbt.Receptor>
cavity.prm

>  <SCORE>
-81.3949

>  <SCORE.INTER>
-20.6889

>  <SCORE.INTER.CONST>
1

>  <SCORE.INTER.POLAR>
-0.886837

>  <SCORE.INTER.REPUL>
0.319685

>  <SCORE.INTER.ROT>
9

>  <SCORE.INTER.VDW>
-33.672

>  <SCORE.INTER.norm>
-0.713409

>  <SCORE.INTRA>
-2.91624

>  <SCORE.INTRA.DIHEDRAL>
-3.70341

>  <SCORE.INTRA.DIHEDRAL.0>
14.7815

>  <SCORE.INTRA.POLAR>
0

>  <SCORE.INTRA.POLAR.0>
0

>  <SCORE.INTRA.REPUL>
0

>  <SCORE.INTRA.REPUL.0>
0

>  <SCORE.INTRA.VDW>
-2.17555

>  <SCORE.INTRA.VDW.0>
-0.0652974

>  <SCORE.INTRA.norm>
-0.10056

>  <SCORE.RESTR>
3.0387

>  <SCORE.RESTR.CAVITY>
0.60774

>  <SCORE.RESTR.norm>
0.104783

>  <SCORE.SYSTEM>
-60.8285

>  <SCORE.SYSTEM.CONST>
0

>  <SCORE.SYSTEM.DIHEDRAL>
3.96353

>  <SCORE.SYSTEM.POLAR>
-0.242583

>  <SCORE.SYSTEM.REPUL>
0.103449

>  <SCORE.SYSTEM.VDW>
-62.5027

>  <SCORE.SYSTEM.norm>
-2.09753

>  <SCORE.heavy>
29

>  <SCORE.norm>
-2.80672

$$$$
OHT.pdb
  rDOCK(R)          3D
libRbt.so/2013.1/901 2013/11/27
 30 32  0  0  0  0  0  0  0  0999 V2000
   69.3116   30.9798   71.0905 C   0  0  0  0  0  0
   68.8254   31.8773   72.1952 C   0  0  0  0  0  0
   68.1793   33.1403   71.6646 C   0  0  0  0  0  0
   67.2262   32.8988   70.5385 C   0  0  0  0  0  0
   66.0005   32.2367   70.7626 C   0  0  0  0  0  0
   65.0908   32.0559   69.7203 C   0  0  0  0  0  0
   65.3667   32.5152   68.4475 C   0  0  0  0  0  0
   66.5567   33.1612   68.2110 C   0  0  0  0  0  0
   67.4765   33.3507   69.2485 C   0  0  0  0  0  0
   68.4503   34.3774   72.1752 C   0  0  0  0  0  0
   68.4768   35.6401   71.3493 C   0  0  0  0  0  0
   69.6968   36.3298   71.0659 C   0  0  0  0  0  0
   69.6870   37.5297   70.3402 C   0  0  0  0  0  0
   68.4590   38.0512   69.8910 C   0  0  0  0  0  0
   68.4734   39.2289   69.2052 O   0  0  0  0  0  0
   67.2471   37.3765   70.1627 C   0  0  0  0  0  0
   67.2783   36.1898   70.8843 C   0  0  0  0  0  0
   68.7617   34.5947   73.5912 C   0  0  0  0  0  0
   67.8880   35.2764   74.4350 C   0  0  0  0  0  0
   68.1498   35.4669   75.7625 C   0  0  0  0  0  0
   69.3229   34.9666   76.3044 C   0  0  0  0  0  0
   69.6440   35.0807   77.6267 O   0  0  0  0  0  0
   70.0139   36.3482   78.1611 C   0  0  0  0  0  0
   68.8425   36.8280   78.9747 C   0  0  0  0  0  0
   68.6944   38.2576   78.9866 N   0  0  0  0  0  0
   67.2974   38.6552   79.1666 C   0  0  0  0  0  0
   69.4759   38.8231   80.0923 C   0  0  0  0  0  0
   70.2297   34.2757   75.4820 C   0  0  0  0  0  0
   69.9440   34.0990   74.1573 C   0  0  0  0  0  0
   68.3073   40.0345   69.6540 H   0  0  0  0  0  0
  1  2  1  0  0  0
  2  3  1  0  0  0
  3  4  1  0  0  0
  3 10  1  0  0  0
  4  5  2  0  0  0
  4  9  1  0  0  0
  5  6  1  0  0  0
  6  7  2  0  0  0
  7  8  1  0  0  0
  8  9  2  0  0  0
 10 11  1  0  0  0
 10 18  1  0  0  0
 11 12  2  0  0  0
 11 17  1  0  0  0
 12 13  1  0  0  0
 13 14  2  0  0  0
 14 15  1  0  0  0
 14 16  1  0  0  0
 15 30  1  0  0  0
 16 17  2  0  0  0
 18 19  2  0  0  0
 18 29  1  0  0  0
 19 20  1  0  0  0
 20 21  2  0  0  0
 21 22  1  0  0  0
 21 28  1  0  0  0
 22 23  1  0  0  0
 23 24  1  0  0  0
 24 25  1  0  0  0
 25 26  1  0  0  0
 25 27  1  0  0  0
 28 29  2  0  0  0
M  END
>  <CHROM.0>
-21.44550420,-58.45393192,-121.03909202,-62.90838781

>  <CHROM.1>
45.41657392,69.11168212,146.25503795,-109.76746115,-111.53186973,-96.36147784
-71.69371407,105.73186032,-148.32463923,151.48203470,68.30285899,35.22344436
73.19695583,3.06422501,-1.37961273,-0.44789784

>  <FORMUL>
      OHT    C26 H29 N1 O2

>  <HET>
 OHT  A 600      29

>  <HETNAM>
     OHT 4-HYDROXYTAMOXIFEN

>  <Name>
OHT.pdb

>  <RI>
0

>  <Rbt.Current_Directory>
/home/malgorzata/Desktop/rDOCK_IFD/Wyniki/5_estrogen_receptor

>  <Rbt.Executable>
rbdock ($Id: //depot/dev/client3/rdock/2013.1/src/exe/rbdock.cxx#4 $)

>  <Rbt.Library>
libRbt.so (2013.1, Build901 2013/11/27)

>  <Rbt.Parameter_File>
/home/malgorzata/Desktop/rDock_2013.1_src/data/scripts/soft_docking.prm

>  <Rbt.Receptor>
cavity.prm

>  <SCORE>
-82.0828

>  <SCORE.INTER>
-24.6992

>  <SCORE.INTER.CONST>
1

>  <SCORE.INTER.POLAR>
-0.95366

>  <SCORE.INTER.REPUL>
0.524195

>  <SCORE.INTER.ROT>
9

>  <SCORE.INTER.VDW>
-38.4778

>  <SCORE.INTER.norm>
-0.851697

>  <SCORE.INTRA>
-0.326715

>  <SCORE.INTRA.DIHEDRAL>
13.0791

>  <SCORE.INTRA.DIHEDRAL.0>
14.7815

>  <SCORE.INTRA.POLAR>
0

>  <SCORE.INTRA.POLAR.0>
0

>  <SCORE.INTRA.REPUL>
0

>  <SCORE.INTRA.REPUL.0>
0

>  <SCORE.INTRA.VDW>
-2.94253

>  <SCORE.INTRA.VDW.0>
-0.0652974

>  <SCORE.INTRA.norm>
-0.011266

>  <SCORE.RESTR>
1.117

>  <SCORE.RESTR.CAVITY>
0.223399

>  <SCORE.RESTR.norm>
0.0385171

>  <SCORE.SYSTEM>
-58.1738

>  <SCORE.SYSTEM.CONST>
0

>  <SCORE.SYSTEM.DIHEDRAL>
4.76809

>  <SCORE.SYSTEM.POLAR>
-0.293606

>  <SCORE.SYSTEM.REPUL>
0.0461957

>  <SCORE.SYSTEM.VDW>
-59.7906

>  <SCORE.SYSTEM.norm>
-2.00599

>  <SCORE.heavy>
29

>  <SCORE.norm>
-2.83044

$$$$
OHT.pdb
  rDOCK(R)          3D
libRbt.so/2013.1/901 2013/11/27
 30 32  0  0  0  0  0  0  0  0999 V2000
   64.7984   35.5135   71.7346 C   0  0  0  0  0  0
   65.0709   34.8398   70.4178 C   0  0  0  0  0  0
   66.3980   34.1097   70.4117 C   0  0  0  0  0  0
   66.3094   32.7086   69.8985 C   0  0  0  0  0  0
   65.9750   31.6452   70.7636 C   0  0  0  0  0  0
   65.8447   30.3455   70.2730 C   0  0  0  0  0  0
   66.0419   30.0672   68.9348 C   0  0  0  0  0  0
   66.3696   31.0909   68.0780 C   0  0  0  0  0  0
   66.5012   32.3991   68.5575 C   0  0  0  0  0  0
   67.5593   34.6881   70.8378 C   0  0  0  0  0  0
   68.2606   35.8049   70.1041 C   0  0  0  0  0  0
   68.1178   35.9859   68.6931 C   0  0  0  0  0  0
   68.8221   36.9999   68.0280 C   0  0  0  0  0  0
   69.6749   37.8421   68.7663 C   0  0  0  0  0  0
   70.3639   38.8073   68.0945 O   0  0  0  0  0  0
   69.8215   37.6745   70.1621 C   0  0  0  0  0  0
   69.1159   36.6631   70.8017 C   0  0  0  0  0  0
   68.2518   34.2602   72.0571 C   0  0  0  0  0  0
   69.3100   33.3554   72.0170 C   0  0  0  0  0  0
   69.9832   32.9642   73.1399 C   0  0  0  0  0  0
   69.6125   33.4804   74.3712 C   0  0  0  0  0  0
   70.2549   33.1710   75.5358 O   0  0  0  0  0  0
   69.5153   32.6611   76.6412 C   0  0  0  0  0  0
   69.3294   33.8080   77.5975 C   0  0  0  0  0  0
   70.5095   34.6090   77.7751 N   0  0  0  0  0  0
   70.7025   35.5417   76.6638 C   0  0  0  0  0  0
   70.3911   35.3904   79.0115 C   0  0  0  0  0  0
   68.5470   34.3938   74.4503 C   0  0  0  0  0  0
   67.8900   34.7687   73.3120 C   0  0  0  0  0  0
   70.6769   38.6416   67.2270 H   0  0  0  0  0  0
  1  2  1  0  0  0
  2  3  1  0  0  0
  3  4  1  0  0  0
  3 10  1  0  0  0
  4  5  2  0  0  0
  4  9  1  0  0  0
  5  6  1  0  0  0
  6  7  2  0  0  0
  7  8  1  0  0  0
  8  9  2  0  0  0
 10 11  1  0  0  0
 10 18  1  0  0  0
 11 12  2  0  0  0
 11 17  1  0  0  0
 12 13  1  0  0  0
 13 14  2  0  0  0
 14 15  1  0  0  0
 14 16  1  0  0  0
 15 30  1  0  0  0
 16 17  2  0  0  0
 18 19  2  0  0  0
 18 29  1  0  0  0
 19 20  1  0  0  0
 20 21  2  0  0  0
 21 22  1  0  0  0
 21 28  1  0  0  0
 22 23  1  0  0  0
 23 24  1  0  0  0
 24 25  1  0  0  0
 25 26  1  0  0  0
 25 27  1  0  0  0
 28 29  2  0  0  0
M  END
>  <CHROM.0>
10.96919000,-61.52143283,35.50330918,-178.85131702

>  <CHROM.1>
131.15306955,-86.25564536,-69.20632013,-26.29004245,96.39537616,-35.11441243
-125.59072543,-101.75855022,-42.78878894,79.05367251,68.29813184,34.37510098
72.06425595,2.20980368,-0.97310408,-1.01890698

>  <FORMUL>
      OHT    C26 H29 N1 O2

>  <HET>
 OHT  A 600      29

>  <HETNAM>
     OHT 4-HYDROXYTAMOXIFEN

>  <Name>
OHT.pdb

>  <RI>
0

>  <Rbt.Current_Directory>
/home/malgorzata/Desktop/rDOCK_IFD/Wyniki/5_estrogen_receptor

>  <Rbt.Executable>
rbdock ($Id: //depot/dev/client3/rdock/2013.1/src/exe/rbdock.cxx#4 $)

>  <Rbt.Library>
libRbt.so (2013.1, Build901 2013/11/27)

>  <Rbt.Parameter_File>
/home/malgorzata/Desktop/rDock_2013.1_src/data/scripts/soft_docking.prm

>  <Rbt.Receptor>
cavity.prm

>  <SCORE>
-79.7178

>  <SCORE.INTER>
-20.2846

>  <SCORE.INTER.CONST>
1

>  <SCORE.INTER.POLAR>
-0.533492

>  <SCORE.INTER.REPUL>
0

>  <SCORE.INTER.ROT>
9

>  <SCORE.INTER.VDW>
-32.8707

>  <SCORE.INTER.norm>
-0.69947

>  <SCORE.INTRA>
0.544522

>  <SCORE.INTRA.DIHEDRAL>
3.48778

>  <SCORE.INTRA.DIHEDRAL.0>
14.7815

>  <SCORE.INTRA.POLAR>
0

>  <SCORE.INTRA.POLAR.0>
0

>  <SCORE.INTRA.REPUL>
0

>  <SCORE.INTRA.REPUL.0>
0

>  <SCORE.INTRA.VDW>
-0.153034

>  <SCORE.INTRA.VDW.0>
-0.0652974

>  <SCORE.INTRA.norm>
0.0187766

>  <SCORE.RESTR>
1.16696

>  <SCORE.RESTR.CAVITY>
0.233391

>  <SCORE.RESTR.norm>
0.0402399

>  <SCORE.SYSTEM>
-61.1447

>  <SCORE.SYSTEM.CONST>
0

>  <SCORE.SYSTEM.DIHEDRAL>
0.923617

>  <SCORE.SYSTEM.POLAR>
-0.12556

>  <SCORE.SYSTEM.REPUL>
0.170404

>  <SCORE.SYSTEM.VDW>
-62.0316

>  <SCORE.SYSTEM.norm>
-2.10844

>  <SCORE.heavy>
29

>  <SCORE.norm>
-2.74889

$$$$
