OHT.pdb
  rDOCK(R)          3D
libRbt.so/2013.1/901 2013/11/27
 30 32  0  0  0  0  0  0  0  0999 V2000
   67.7651   37.9452   79.5474 C   0  0  0  0  0  0
   68.8569   37.2236   78.8063 C   0  0  0  0  0  0
   69.0328   35.7991   79.2900 C   0  0  0  0  0  0
   69.3226   35.6939   80.7527 C   0  0  0  0  0  0
   70.6253   35.9188   81.2461 C   0  0  0  0  0  0
   70.8835   35.8684   82.6164 C   0  0  0  0  0  0
   69.8760   35.5953   83.5206 C   0  0  0  0  0  0
   68.6013   35.3723   83.0572 C   0  0  0  0  0  0
   68.3291   35.4221   81.6854 C   0  0  0  0  0  0
   68.9338   34.7207   78.4582 C   0  0  0  0  0  0
   68.8452   33.2932   78.9396 C   0  0  0  0  0  0
   67.8413   32.8714   79.8663 C   0  0  0  0  0  0
   67.8139   31.5510   80.3376 C   0  0  0  0  0  0
   68.7884   30.6402   79.8876 C   0  0  0  0  0  0
   68.7530   29.3681   80.3754 O   0  0  0  0  0  0
   69.7837   31.0453   78.9693 C   0  0  0  0  0  0
   69.7941   32.3582   78.5155 C   0  0  0  0  0  0
   68.9207   34.8503   76.9979 C   0  0  0  0  0  0
   70.0003   34.4416   76.2185 C   0  0  0  0  0  0
   69.9961   34.5317   74.8550 C   0  0  0  0  0  0
   68.8823   35.0441   74.2094 C   0  0  0  0  0  0
   68.7813   35.1346   72.8507 O   0  0  0  0  0  0
   68.1730   36.2782   72.2582 C   0  0  0  0  0  0
   68.3387   36.1286   70.7701 C   0  0  0  0  0  0
   67.7241   37.1834   70.0116 N   0  0  0  0  0  0
   68.5889   37.6419   68.9234 C   0  0  0  0  0  0
   66.4696   36.6991   69.4243 C   0  0  0  0  0  0
   67.7752   35.4692   74.9640 C   0  0  0  0  0  0
   67.8049   35.3684   76.3267 C   0  0  0  0  0  0
   67.9379   28.9916   80.6434 H   0  0  0  0  0  0
  1  2  1  0  0  0
  2  3  1  0  0  0
  3  4  1  0  0  0
  3 10  1  0  0  0
  4  5  2  0  0  0
  4  9  1  0  0  0
  5  6  1  0  0  0
  6  7  2  0  0  0
  7  8  1  0  0  0
  8  9  2  0  0  0
 10 11  1  0  0  0
 10 18  1  0  0  0
 11 12  2  0  0  0
 11 17  1  0  0  0
 12 13  1  0  0  0
 13 14  2  0  0  0
 14 15  1  0  0  0
 14 16  1  0  0  0
 15 30  1  0  0  0
 16 17  2  0  0  0
 18 19  2  0  0  0
 18 29  1  0  0  0
 19 20  1  0  0  0
 20 21  2  0  0  0
 21 22  1  0  0  0
 21 28  1  0  0  0
 22 23  1  0  0  0
 23 24  1  0  0  0
 24 25  1  0  0  0
 25 26  1  0  0  0
 25 27  1  0  0  0
 28 29  2  0  0  0
M  END
>  <CHROM.0>
144.48651440,-63.30040820,-94.85716782,3.50964844

>  <CHROM.1>
-57.19553542,-80.09422595,-168.07519482,55.04182987,109.05245738,28.77559230
-140.66071653,174.71863853,177.52325537,136.83904766,68.77478110,34.82656822
77.23624458,-0.30548172,-1.46009324,-0.06196529

>  <FORMUL>
      OHT    C26 H29 N1 O2

>  <HET>
 OHT  A 600      29

>  <HETNAM>
     OHT 4-HYDROXYTAMOXIFEN

>  <Name>
OHT.pdb

>  <RI>
3.98652e+07

>  <Rbt.Current_Directory>
/home/malgorzata/Desktop/rDOCK_IFD/Wyniki/5_estrogen_receptor

>  <Rbt.Executable>
rbdock ($Id: //depot/dev/client3/rdock/2013.1/src/exe/rbdock.cxx#4 $)

>  <Rbt.Library>
libRbt.so (2013.1, Build901 2013/11/27)

>  <Rbt.Parameter_File>
/home/malgorzata/Desktop/rDock_2013.1_src/data/scripts/dock.prm

>  <Rbt.Receptor>
cavity.prm

>  <SCORE>
-49.7588

>  <SCORE.INTER>
-13.5139

>  <SCORE.INTER.CONST>
1

>  <SCORE.INTER.POLAR>
-1.0192

>  <SCORE.INTER.REPUL>
0

>  <SCORE.INTER.ROT>
9

>  <SCORE.INTER.VDW>
-24.4486

>  <SCORE.INTER.norm>
-0.465996

>  <SCORE.INTRA>
-2.35129

>  <SCORE.INTRA.DIHEDRAL>
-1.09594

>  <SCORE.INTRA.DIHEDRAL.0>
14.7815

>  <SCORE.INTRA.POLAR>
0

>  <SCORE.INTRA.POLAR.0>
0

>  <SCORE.INTRA.REPUL>
0

>  <SCORE.INTRA.REPUL.0>
0

>  <SCORE.INTRA.VDW>
-1.80332

>  <SCORE.INTRA.VDW.0>
-0.0652974

>  <SCORE.INTRA.norm>
-0.0810789

>  <SCORE.RESTR>
0.188687

>  <SCORE.RESTR.CAVITY>
0.188687

>  <SCORE.RESTR.norm>
0.00650644

>  <SCORE.SYSTEM>
-34.0823

>  <SCORE.SYSTEM.CONST>
0

>  <SCORE.SYSTEM.DIHEDRAL>
0.971069

>  <SCORE.SYSTEM.REPUL>
1.12333

>  <SCORE.SYSTEM.VDW>
-40.1845

>  <SCORE.SYSTEM.norm>
-1.17525

>  <SCORE.heavy>
29

>  <SCORE.norm>
-1.71582

$$$$
OHT.pdb
  rDOCK(R)          3D
libRbt.so/2013.1/901 2013/11/27
 30 32  0  0  0  0  0  0  0  0999 V2000
   66.5638   31.6056   81.1645 C   0  0  0  0  0  0
   66.6152   32.9892   81.7519 C   0  0  0  0  0  0
   67.9901   33.6128   81.6292 C   0  0  0  0  0  0
   69.0001   33.0260   82.5620 C   0  0  0  0  0  0
   68.9582   33.3153   83.9425 C   0  0  0  0  0  0
   69.8716   32.7280   84.8186 C   0  0  0  0  0  0
   70.8378   31.8548   84.3589 C   0  0  0  0  0  0
   70.8940   31.5629   83.0168 C   0  0  0  0  0  0
   69.9822   32.1439   82.1283 C   0  0  0  0  0  0
   68.2682   34.6162   80.7458 C   0  0  0  0  0  0
   68.0552   36.0804   81.0428 C   0  0  0  0  0  0
   69.0529   36.8700   81.6950 C   0  0  0  0  0  0
   68.8085   38.2154   82.0061 C   0  0  0  0  0  0
   67.5658   38.7840   81.6684 C   0  0  0  0  0  0
   67.3445   40.0876   81.9991 O   0  0  0  0  0  0
   66.5731   38.0139   81.0208 C   0  0  0  0  0  0
   66.8347   36.6825   80.7225 C   0  0  0  0  0  0
   68.7918   34.3596   79.4008 C   0  0  0  0  0  0
   69.2019   35.3966   78.5663 C   0  0  0  0  0  0
   69.7154   35.1751   77.3195 C   0  0  0  0  0  0
   69.8415   33.8756   76.8554 C   0  0  0  0  0  0
   70.3777   33.5648   75.6387 O   0  0  0  0  0  0
   69.8703   34.1830   74.4600 C   0  0  0  0  0  0
   68.4487   33.7135   74.3084 C   0  0  0  0  0  0
   67.8343   34.1210   73.0747 N   0  0  0  0  0  0
   66.6416   33.3269   72.7762 C   0  0  0  0  0  0
   67.4332   35.5295   73.1677 C   0  0  0  0  0  0
   69.4351   32.8039   77.6692 C   0  0  0  0  0  0
   68.9245   33.0527   78.9123 C   0  0  0  0  0  0
   67.9935   40.5667   82.4759 H   0  0  0  0  0  0
  1  2  1  0  0  0
  2  3  1  0  0  0
  3  4  1  0  0  0
  3 10  1  0  0  0
  4  5  2  0  0  0
  4  9  1  0  0  0
  5  6  1  0  0  0
  6  7  2  0  0  0
  7  8  1  0  0  0
  8  9  2  0  0  0
 10 11  1  0  0  0
 10 18  1  0  0  0
 11 12  2  0  0  0
 11 17  1  0  0  0
 12 13  1  0  0  0
 13 14  2  0  0  0
 14 15  1  0  0  0
 14 16  1  0  0  0
 15 30  1  0  0  0
 16 17  2  0  0  0
 18 19  2  0  0  0
 18 29  1  0  0  0
 19 20  1  0  0  0
 20 21  2  0  0  0
 21 22  1  0  0  0
 21 28  1  0  0  0
 22 23  1  0  0  0
 23 24  1  0  0  0
 24 25  1  0  0  0
 25 26  1  0  0  0
 25 27  1  0  0  0
 28 29  2  0  0  0
M  END
>  <CHROM.0>
70.81395567,-64.25228709,-156.82727406,1.79747209

>  <CHROM.1>
-73.13262770,-73.30705976,86.29166583,86.69191421,-173.10859441,-3.00664211
-53.10632090,-64.93575463,-173.01301749,162.42401018,68.58196864,34.54489839
79.48862331,-1.40401724,1.26362981,-1.76891620

>  <FORMUL>
      OHT    C26 H29 N1 O2

>  <HET>
 OHT  A 600      29

>  <HETNAM>
     OHT 4-HYDROXYTAMOXIFEN

>  <Name>
OHT.pdb

>  <RI>
3.98652e+07

>  <Rbt.Current_Directory>
/home/malgorzata/Desktop/rDOCK_IFD/Wyniki/5_estrogen_receptor

>  <Rbt.Executable>
rbdock ($Id: //depot/dev/client3/rdock/2013.1/src/exe/rbdock.cxx#4 $)

>  <Rbt.Library>
libRbt.so (2013.1, Build901 2013/11/27)

>  <Rbt.Parameter_File>
/home/malgorzata/Desktop/rDock_2013.1_src/data/scripts/dock.prm

>  <Rbt.Receptor>
cavity.prm

>  <SCORE>
-39.6489

>  <SCORE.INTER>
-2.63831

>  <SCORE.INTER.CONST>
1

>  <SCORE.INTER.POLAR>
0

>  <SCORE.INTER.REPUL>
0.0254286

>  <SCORE.INTER.ROT>
9

>  <SCORE.INTER.VDW>
-17.1655

>  <SCORE.INTER.norm>
-0.0909763

>  <SCORE.INTRA>
-3.05391

>  <SCORE.INTRA.DIHEDRAL>
-2.58609

>  <SCORE.INTRA.DIHEDRAL.0>
14.7815

>  <SCORE.INTRA.POLAR>
0

>  <SCORE.INTRA.POLAR.0>
0

>  <SCORE.INTRA.REPUL>
0

>  <SCORE.INTRA.REPUL.0>
0

>  <SCORE.INTRA.VDW>
-1.76086

>  <SCORE.INTRA.VDW.0>
-0.0652974

>  <SCORE.INTRA.norm>
-0.105307

>  <SCORE.RESTR>
0

>  <SCORE.RESTR.CAVITY>
0

>  <SCORE.RESTR.norm>
0

>  <SCORE.SYSTEM>
-33.9566

>  <SCORE.SYSTEM.CONST>
0

>  <SCORE.SYSTEM.DIHEDRAL>
1.04414

>  <SCORE.SYSTEM.REPUL>
1.18824

>  <SCORE.SYSTEM.VDW>
-40.4199

>  <SCORE.SYSTEM.norm>
-1.17092

>  <SCORE.heavy>
29

>  <SCORE.norm>
-1.3672

$$$$
OHT.pdb
  rDOCK(R)          3D
libRbt.so/2013.1/901 2013/11/27
 30 32  0  0  0  0  0  0  0  0999 V2000
   69.9294   30.5126   80.5757 C   0  0  0  0  0  0
   70.7907   31.7451   80.5375 C   0  0  0  0  0  0
   70.0017   33.0045   80.8294 C   0  0  0  0  0  0
   70.3189   33.6172   82.1555 C   0  0  0  0  0  0
   71.2633   34.6605   82.2587 C   0  0  0  0  0  0
   71.5221   35.2642   83.4897 C   0  0  0  0  0  0
   70.8658   34.8559   84.6342 C   0  0  0  0  0  0
   69.9436   33.8400   84.5521 C   0  0  0  0  0  0
   69.6737   33.2278   83.3230 C   0  0  0  0  0  0
   69.0889   33.5216   79.9552 C   0  0  0  0  0  0
   67.7410   34.0601   80.3683 C   0  0  0  0  0  0
   66.5830   33.2240   80.4327 C   0  0  0  0  0  0
   65.3320   33.7611   80.7688 C   0  0  0  0  0  0
   65.2265   35.1377   81.0438 C   0  0  0  0  0  0
   63.9966   35.6397   81.3484 O   0  0  0  0  0  0
   66.3651   35.9733   80.9862 C   0  0  0  0  0  0
   67.5950   35.4218   80.6500 C   0  0  0  0  0  0
   69.3305   33.5876   78.5107 C   0  0  0  0  0  0
   69.4061   34.8045   77.8375 C   0  0  0  0  0  0
   69.6551   34.8864   76.4964 C   0  0  0  0  0  0
   69.8442   33.7240   75.7663 C   0  0  0  0  0  0
   70.1334   33.7180   74.4318 O   0  0  0  0  0  0
   69.6665   34.7750   73.5990 C   0  0  0  0  0  0
   70.0577   34.4155   72.1911 C   0  0  0  0  0  0
   69.1373   33.5190   71.5470 N   0  0  0  0  0  0
   69.0091   32.2578   72.2785 C   0  0  0  0  0  0
   67.8111   34.1431   71.4776 C   0  0  0  0  0  0
   69.7721   32.4775   76.4120 C   0  0  0  0  0  0
   69.5216   32.4233   77.7544 C   0  0  0  0  0  0
   63.8946   36.5540   81.5265 H   0  0  0  0  0  0
  1  2  1  0  0  0
  2  3  1  0  0  0
  3  4  1  0  0  0
  3 10  1  0  0  0
  4  5  2  0  0  0
  4  9  1  0  0  0
  5  6  1  0  0  0
  6  7  2  0  0  0
  7  8  1  0  0  0
  8  9  2  0  0  0
 10 11  1  0  0  0
 10 18  1  0  0  0
 11 12  2  0  0  0
 11 17  1  0  0  0
 12 13  1  0  0  0
 13 14  2  0  0  0
 14 15  1  0  0  0
 14 16  1  0  0  0
 15 30  1  0  0  0
 16 17  2  0  0  0
 18 19  2  0  0  0
 18 29  1  0  0  0
 19 20  1  0  0  0
 20 21  2  0  0  0
 21 22  1  0  0  0
 21 28  1  0  0  0
 22 23  1  0  0  0
 23 24  1  0  0  0
 24 25  1  0  0  0
 25 26  1  0  0  0
 25 27  1  0  0  0
 28 29  2  0  0  0
M  END
>  <CHROM.0>
-57.01919702,-63.54118717,-89.15804712,3.66174701

>  <CHROM.1>
109.50654292,95.50755240,137.34124906,-89.80403367,-116.65187612,-179.31308563
-29.34078548,-175.67744088,83.11576187,-59.41133983,68.92449387,33.85932486
78.71006373,-1.60634421,0.34106959,-1.60831376

>  <FORMUL>
      OHT    C26 H29 N1 O2

>  <HET>
 OHT  A 600      29

>  <HETNAM>
     OHT 4-HYDROXYTAMOXIFEN

>  <Name>
OHT.pdb

>  <RI>
3.98652e+07

>  <Rbt.Current_Directory>
/home/malgorzata/Desktop/rDOCK_IFD/Wyniki/5_estrogen_receptor

>  <Rbt.Executable>
rbdock ($Id: //depot/dev/client3/rdock/2013.1/src/exe/rbdock.cxx#4 $)

>  <Rbt.Library>
libRbt.so (2013.1, Build901 2013/11/27)

>  <Rbt.Parameter_File>
/home/malgorzata/Desktop/rDock_2013.1_src/data/scripts/dock.prm

>  <Rbt.Receptor>
cavity.prm

>  <SCORE>
-41.5548

>  <SCORE.INTER>
-6.79495

>  <SCORE.INTER.CONST>
1

>  <SCORE.INTER.POLAR>
-0.632456

>  <SCORE.INTER.REPUL>
0

>  <SCORE.INTER.ROT>
9

>  <SCORE.INTER.VDW>
-19.0446

>  <SCORE.INTER.norm>
-0.234309

>  <SCORE.INTRA>
-0.603824

>  <SCORE.INTRA.DIHEDRAL>
-5.15365

>  <SCORE.INTRA.DIHEDRAL.0>
14.7815

>  <SCORE.INTRA.POLAR>
0

>  <SCORE.INTRA.POLAR.0>
0

>  <SCORE.INTRA.REPUL>
0

>  <SCORE.INTRA.REPUL.0>
0

>  <SCORE.INTRA.VDW>
1.973

>  <SCORE.INTRA.VDW.0>
-0.0652974

>  <SCORE.INTRA.norm>
-0.0208215

>  <SCORE.RESTR>
0

>  <SCORE.RESTR.CAVITY>
0

>  <SCORE.RESTR.norm>
0

>  <SCORE.SYSTEM>
-34.1561

>  <SCORE.SYSTEM.CONST>
0

>  <SCORE.SYSTEM.DIHEDRAL>
1.00214

>  <SCORE.SYSTEM.REPUL>
1.14968

>  <SCORE.SYSTEM.VDW>
-40.4055

>  <SCORE.SYSTEM.norm>
-1.1778

>  <SCORE.heavy>
29

>  <SCORE.norm>
-1.43293

$$$$
OHT.pdb
  rDOCK(R)          3D
libRbt.so/2013.1/901 2013/11/27
 30 32  0  0  0  0  0  0  0  0999 V2000
   65.7489   35.6122   81.3466 C   0  0  0  0  0  0
   65.9640   36.9096   82.0766 C   0  0  0  0  0  0
   67.3855   37.0554   82.5787 C   0  0  0  0  0  0
   67.5506   36.7041   84.0223 C   0  0  0  0  0  0
   67.8868   35.3894   84.4091 C   0  0  0  0  0  0
   68.0886   35.0750   85.7533 C   0  0  0  0  0  0
   67.9618   36.0372   86.7358 C   0  0  0  0  0  0
   67.6334   37.3228   86.3770 C   0  0  0  0  0  0
   67.4305   37.6513   85.0319 C   0  0  0  0  0  0
   68.4111   37.4698   81.7781 C   0  0  0  0  0  0
   69.4228   38.5144   82.1814 C   0  0  0  0  0  0
   69.2695   39.8900   81.8231 C   0  0  0  0  0  0
   70.2510   40.8311   82.1657 C   0  0  0  0  0  0
   71.3941   40.4068   82.8693 C   0  0  0  0  0  0
   72.3433   41.3364   83.1733 O   0  0  0  0  0  0
   71.5549   39.0500   83.2314 C   0  0  0  0  0  0
   70.5715   38.1333   82.8814 C   0  0  0  0  0  0
   68.6180   36.9426   80.4259 C   0  0  0  0  0  0
   69.1943   35.6932   80.2091 C   0  0  0  0  0  0
   69.3724   35.1750   78.9574 C   0  0  0  0  0  0
   68.9670   35.9069   77.8529 C   0  0  0  0  0  0
   69.0745   35.4481   76.5713 O   0  0  0  0  0  0
   67.9166   34.9848   75.8832 C   0  0  0  0  0  0
   68.2686   34.9616   74.4203 C   0  0  0  0  0  0
   69.4096   34.1432   74.1138 N   0  0  0  0  0  0
   69.0256   32.7549   73.8545 C   0  0  0  0  0  0
   70.0790   34.6629   72.9158 C   0  0  0  0  0  0
   68.3840   37.1732   78.0334 C   0  0  0  0  0  0
   68.2174   37.6687   79.2961 C   0  0  0  0  0  0
   72.1994   42.2385   82.9649 H   0  0  0  0  0  0
  1  2  1  0  0  0
  2  3  1  0  0  0
  3  4  1  0  0  0
  3 10  1  0  0  0
  4  5  2  0  0  0
  4  9  1  0  0  0
  5  6  1  0  0  0
  6  7  2  0  0  0
  7  8  1  0  0  0
  8  9  2  0  0  0
 10 11  1  0  0  0
 10 18  1  0  0  0
 11 12  2  0  0  0
 11 17  1  0  0  0
 12 13  1  0  0  0
 13 14  2  0  0  0
 14 15  1  0  0  0
 14 16  1  0  0  0
 15 30  1  0  0  0
 16 17  2  0  0  0
 18 19  2  0  0  0
 18 29  1  0  0  0
 19 20  1  0  0  0
 20 21  2  0  0  0
 21 22  1  0  0  0
 21 28  1  0  0  0
 22 23  1  0  0  0
 23 24  1  0  0  0
 24 25  1  0  0  0
 25 26  1  0  0  0
 25 27  1  0  0  0
 28 29  2  0  0  0
M  END
>  <CHROM.0>
70.81872759,-64.26122154,178.40549652,9.32802316

>  <CHROM.1>
-98.82648499,91.47352435,133.78754865,-95.27123024,-77.75753885,4.02230511
104.20702826,162.87736936,57.51658582,88.44693819,68.82202447,36.82976413
80.59134937,1.57448435,0.85495617,1.22284661

>  <FORMUL>
      OHT    C26 H29 N1 O2

>  <HET>
 OHT  A 600      29

>  <HETNAM>
     OHT 4-HYDROXYTAMOXIFEN

>  <Name>
OHT.pdb

>  <RI>
3.98652e+07

>  <Rbt.Current_Directory>
/home/malgorzata/Desktop/rDOCK_IFD/Wyniki/5_estrogen_receptor

>  <Rbt.Executable>
rbdock ($Id: //depot/dev/client3/rdock/2013.1/src/exe/rbdock.cxx#4 $)

>  <Rbt.Library>
libRbt.so (2013.1, Build901 2013/11/27)

>  <Rbt.Parameter_File>
/home/malgorzata/Desktop/rDock_2013.1_src/data/scripts/dock.prm

>  <Rbt.Receptor>
cavity.prm

>  <SCORE>
-44.745

>  <SCORE.INTER>
-6.08027

>  <SCORE.INTER.CONST>
1

>  <SCORE.INTER.POLAR>
0

>  <SCORE.INTER.REPUL>
0

>  <SCORE.INTER.ROT>
9

>  <SCORE.INTER.VDW>
-20.4803

>  <SCORE.INTER.norm>
-0.209665

>  <SCORE.INTRA>
-4.75806

>  <SCORE.INTRA.DIHEDRAL>
-0.61153

>  <SCORE.INTRA.DIHEDRAL.0>
14.7815

>  <SCORE.INTRA.POLAR>
0

>  <SCORE.INTRA.POLAR.0>
0

>  <SCORE.INTRA.REPUL>
0

>  <SCORE.INTRA.REPUL.0>
0

>  <SCORE.INTRA.VDW>
-4.4523

>  <SCORE.INTRA.VDW.0>
-0.0652974

>  <SCORE.INTRA.norm>
-0.164071

>  <SCORE.RESTR>
0

>  <SCORE.RESTR.CAVITY>
0

>  <SCORE.RESTR.norm>
0

>  <SCORE.SYSTEM>
-33.9067

>  <SCORE.SYSTEM.CONST>
0

>  <SCORE.SYSTEM.DIHEDRAL>
1.15398

>  <SCORE.SYSTEM.REPUL>
1.1881

>  <SCORE.SYSTEM.VDW>
-40.4242

>  <SCORE.SYSTEM.norm>
-1.1692

>  <SCORE.heavy>
29

>  <SCORE.norm>
-1.54293

$$$$
OHT.pdb
  rDOCK(R)          3D
libRbt.so/2013.1/901 2013/11/27
 30 32  0  0  0  0  0  0  0  0999 V2000
   68.0720   32.8970   85.4662 C   0  0  0  0  0  0
   68.5396   34.1621   86.1319 C   0  0  0  0  0  0
   68.8559   35.2533   85.1302 C   0  0  0  0  0  0
   70.0585   36.0657   85.4882 C   0  0  0  0  0  0
   71.3409   35.6920   85.0333 C   0  0  0  0  0  0
   72.4552   36.4785   85.3274 C   0  0  0  0  0  0
   72.3328   37.6360   86.0707 C   0  0  0  0  0  0
   71.0912   38.0143   86.5231 C   0  0  0  0  0  0
   69.9655   37.2351   86.2330 C   0  0  0  0  0  0
   68.1053   35.4650   84.0093 C   0  0  0  0  0  0
   66.6158   35.7067   84.0286 C   0  0  0  0  0  0
   65.7996   35.4742   82.8779 C   0  0  0  0  0  0
   64.4264   35.7570   82.9072 C   0  0  0  0  0  0
   63.8562   36.2742   84.0858 C   0  0  0  0  0  0
   62.5236   36.5599   84.0833 O   0  0  0  0  0  0
   64.6528   36.5052   85.2304 C   0  0  0  0  0  0
   66.0114   36.2196   85.1803 C   0  0  0  0  0  0
   68.6825   35.4606   82.6617 C   0  0  0  0  0  0
   69.5660   36.4523   82.2422 C   0  0  0  0  0  0
   70.1329   36.4511   80.9989 C   0  0  0  0  0  0
   69.8292   35.4304   80.1125 C   0  0  0  0  0  0
   70.3793   35.3339   78.8664 O   0  0  0  0  0  0
   69.5371   35.3149   77.7177 C   0  0  0  0  0  0
   69.1509   33.8779   77.4939 C   0  0  0  0  0  0
   70.2744   32.9968   77.3287 N   0  0  0  0  0  0
   70.0114   31.6729   77.8946 C   0  0  0  0  0  0
   70.5640   32.8330   75.8996 C   0  0  0  0  0  0
   68.9391   34.4141   80.5005 C   0  0  0  0  0  0
   68.3856   34.4387   81.7499 C   0  0  0  0  0  0
   62.0112   36.3979   83.3157 H   0  0  0  0  0  0
  1  2  1  0  0  0
  2  3  1  0  0  0
  3  4  1  0  0  0
  3 10  1  0  0  0
  4  5  2  0  0  0
  4  9  1  0  0  0
  5  6  1  0  0  0
  6  7  2  0  0  0
  7  8  1  0  0  0
  8  9  2  0  0  0
 10 11  1  0  0  0
 10 18  1  0  0  0
 11 12  2  0  0  0
 11 17  1  0  0  0
 12 13  1  0  0  0
 13 14  2  0  0  0
 14 15  1  0  0  0
 14 16  1  0  0  0
 15 30  1  0  0  0
 16 17  2  0  0  0
 18 19  2  0  0  0
 18 29  1  0  0  0
 19 20  1  0  0  0
 20 21  2  0  0  0
 21 22  1  0  0  0
 21 28  1  0  0  0
 22 23  1  0  0  0
 23 24  1  0  0  0
 24 25  1  0  0  0
 25 26  1  0  0  0
 25 27  1  0  0  0
 28 29  2  0  0  0
M  END
>  <CHROM.0>
150.06235372,-64.27201669,160.50343000,179.93321918

>  <CHROM.1>
-141.27472233,90.55305309,55.12872338,-158.26696984,-67.64360611,0.99679696
-121.80473891,-87.10612613,-57.19277419,145.82084403,68.60822439,35.32932525
82.56423803,1.86363648,0.02696724,1.24492523

>  <FORMUL>
      OHT    C26 H29 N1 O2

>  <HET>
 OHT  A 600      29

>  <HETNAM>
     OHT 4-HYDROXYTAMOXIFEN

>  <Name>
OHT.pdb

>  <RI>
3.98652e+07

>  <Rbt.Current_Directory>
/home/malgorzata/Desktop/rDOCK_IFD/Wyniki/5_estrogen_receptor

>  <Rbt.Executable>
rbdock ($Id: //depot/dev/client3/rdock/2013.1/src/exe/rbdock.cxx#4 $)

>  <Rbt.Library>
libRbt.so (2013.1, Build901 2013/11/27)

>  <Rbt.Parameter_File>
/home/malgorzata/Desktop/rDock_2013.1_src/data/scripts/dock.prm

>  <Rbt.Receptor>
cavity.prm

>  <SCORE>
-34.556

>  <SCORE.INTER>
0.587474

>  <SCORE.INTER.CONST>
1

>  <SCORE.INTER.POLAR>
-0.105133

>  <SCORE.INTER.REPUL>
0

>  <SCORE.INTER.ROT>
9

>  <SCORE.INTER.VDW>
-13.4551

>  <SCORE.INTER.norm>
0.0202577

>  <SCORE.INTRA>
-1.77978

>  <SCORE.INTRA.DIHEDRAL>
-0.0707295

>  <SCORE.INTRA.DIHEDRAL.0>
14.7815

>  <SCORE.INTRA.POLAR>
0

>  <SCORE.INTRA.POLAR.0>
0

>  <SCORE.INTRA.REPUL>
0

>  <SCORE.INTRA.REPUL.0>
0

>  <SCORE.INTRA.VDW>
-1.74442

>  <SCORE.INTRA.VDW.0>
-0.0652974

>  <SCORE.INTRA.norm>
-0.0613718

>  <SCORE.RESTR>
0.413207

>  <SCORE.RESTR.CAVITY>
0.413207

>  <SCORE.RESTR.norm>
0.0142485

>  <SCORE.SYSTEM>
-33.7769

>  <SCORE.SYSTEM.CONST>
0

>  <SCORE.SYSTEM.DIHEDRAL>
0.987589

>  <SCORE.SYSTEM.REPUL>
1.18794

>  <SCORE.SYSTEM.VDW>
-40.2104

>  <SCORE.SYSTEM.norm>
-1.16472

>  <SCORE.heavy>
29

>  <SCORE.norm>
-1.19159

$$$$
OHT.pdb
  rDOCK(R)          3D
libRbt.so/2013.1/901 2013/11/27
 30 32  0  0  0  0  0  0  0  0999 V2000
   65.1250   35.5707   81.4561 C   0  0  0  0  0  0
   65.3649   34.4866   80.4414 C   0  0  0  0  0  0
   66.8330   34.1368   80.3132 C   0  0  0  0  0  0
   67.2053   32.8558   80.9875 C   0  0  0  0  0  0
   67.0486   32.7044   82.3816 C   0  0  0  0  0  0
   67.3504   31.4917   83.0020 C   0  0  0  0  0  0
   67.8113   30.4141   82.2715 C   0  0  0  0  0  0
   67.9712   30.5444   80.9125 C   0  0  0  0  0  0
   67.6700   31.7549   80.2782 C   0  0  0  0  0  0
   67.7228   34.9259   79.6422 C   0  0  0  0  0  0
   68.4782   34.4833   78.4131 C   0  0  0  0  0  0
   68.1247   34.9415   77.1056 C   0  0  0  0  0  0
   68.8101   34.4736   75.9752 C   0  0  0  0  0  0
   69.8545   33.5443   76.1405 C   0  0  0  0  0  0
   70.4921   33.0891   75.0253 O   0  0  0  0  0  0
   70.2145   33.0866   77.4285 C   0  0  0  0  0  0
   69.5223   33.5615   78.5353 C   0  0  0  0  0  0
   68.0440   36.2910   80.0696 C   0  0  0  0  0  0
   68.5549   36.5585   81.3375 C   0  0  0  0  0  0
   68.8832   37.8209   81.7444 C   0  0  0  0  0  0
   68.7096   38.8844   80.8734 C   0  0  0  0  0  0
   69.0461   40.1702   81.1866 O   0  0  0  0  0  0
   69.5807   40.4714   82.4721 C   0  0  0  0  0  0
   71.0098   40.0003   82.4625 C   0  0  0  0  0  0
   71.6758   40.1502   83.7272 N   0  0  0  0  0  0
   72.7226   39.1437   83.9099 C   0  0  0  0  0  0
   72.3001   41.4762   83.7994 C   0  0  0  0  0  0
   68.1935   38.6525   79.5866 C   0  0  0  0  0  0
   67.8728   37.3801   79.2043 C   0  0  0  0  0  0
   71.1615   32.4379   75.1012 H   0  0  0  0  0  0
  1  2  1  0  0  0
  2  3  1  0  0  0
  3  4  1  0  0  0
  3 10  1  0  0  0
  4  5  2  0  0  0
  4  9  1  0  0  0
  5  6  1  0  0  0
  6  7  2  0  0  0
  7  8  1  0  0  0
  8  9  2  0  0  0
 10 11  1  0  0  0
 10 18  1  0  0  0
 11 12  2  0  0  0
 11 17  1  0  0  0
 12 13  1  0  0  0
 13 14  2  0  0  0
 14 15  1  0  0  0
 14 16  1  0  0  0
 15 30  1  0  0  0
 16 17  2  0  0  0
 18 19  2  0  0  0
 18 29  1  0  0  0
 19 20  1  0  0  0
 20 21  2  0  0  0
 21 22  1  0  0  0
 21 28  1  0  0  0
 22 23  1  0  0  0
 23 24  1  0  0  0
 24 25  1  0  0  0
 25 26  1  0  0  0
 25 27  1  0  0  0
 28 29  2  0  0  0
M  END
>  <CHROM.0>
-82.45673065,-63.99597083,-172.54468311,-5.87024881

>  <CHROM.1>
103.73778929,-61.90105612,-117.35398547,104.76427587,58.10466833,-176.90644125
-1.24128345,75.78800944,-176.06473933,151.14296927,68.75037510,35.71606224
80.39526828,2.23075598,-1.06566579,-2.09652571

>  <FORMUL>
      OHT    C26 H29 N1 O2

>  <HET>
 OHT  A 600      29

>  <HETNAM>
     OHT 4-HYDROXYTAMOXIFEN

>  <Name>
OHT.pdb

>  <RI>
3.98652e+07

>  <Rbt.Current_Directory>
/home/malgorzata/Desktop/rDOCK_IFD/Wyniki/5_estrogen_receptor

>  <Rbt.Executable>
rbdock ($Id: //depot/dev/client3/rdock/2013.1/src/exe/rbdock.cxx#4 $)

>  <Rbt.Library>
libRbt.so (2013.1, Build901 2013/11/27)

>  <Rbt.Parameter_File>
/home/malgorzata/Desktop/rDock_2013.1_src/data/scripts/dock.prm

>  <Rbt.Receptor>
cavity.prm

>  <SCORE>
-45.0743

>  <SCORE.INTER>
-6.42787

>  <SCORE.INTER.CONST>
1

>  <SCORE.INTER.POLAR>
0

>  <SCORE.INTER.REPUL>
0

>  <SCORE.INTER.ROT>
9

>  <SCORE.INTER.VDW>
-20.8279

>  <SCORE.INTER.norm>
-0.221651

>  <SCORE.INTRA>
-4.59845

>  <SCORE.INTRA.DIHEDRAL>
-5.44164

>  <SCORE.INTRA.DIHEDRAL.0>
14.7815

>  <SCORE.INTRA.POLAR>
0

>  <SCORE.INTRA.POLAR.0>
0

>  <SCORE.INTRA.REPUL>
0

>  <SCORE.INTRA.REPUL.0>
0

>  <SCORE.INTRA.VDW>
-1.87763

>  <SCORE.INTRA.VDW.0>
-0.0652974

>  <SCORE.INTRA.norm>
-0.158567

>  <SCORE.RESTR>
0

>  <SCORE.RESTR.CAVITY>
0

>  <SCORE.RESTR.norm>
0

>  <SCORE.SYSTEM>
-34.048

>  <SCORE.SYSTEM.CONST>
0

>  <SCORE.SYSTEM.DIHEDRAL>
1.04232

>  <SCORE.SYSTEM.REPUL>
1.1894

>  <SCORE.SYSTEM.VDW>
-40.5161

>  <SCORE.SYSTEM.norm>
-1.17407

>  <SCORE.heavy>
29

>  <SCORE.norm>
-1.55429

$$$$
OHT.pdb
  rDOCK(R)          3D
libRbt.so/2013.1/901 2013/11/27
 30 32  0  0  0  0  0  0  0  0999 V2000
   69.2435   31.9749   70.6827 C   0  0  0  0  0  0
   69.1659   31.8099   72.1757 C   0  0  0  0  0  0
   68.3211   32.8847   72.8276 C   0  0  0  0  0  0
   66.8657   32.5490   72.8884 C   0  0  0  0  0  0
   66.2441   31.8487   71.8328 C   0  0  0  0  0  0
   64.8972   31.4933   71.9132 C   0  0  0  0  0  0
   64.1404   31.8191   73.0215 C   0  0  0  0  0  0
   64.7296   32.5024   74.0586 C   0  0  0  0  0  0
   66.0801   32.8627   73.9908 C   0  0  0  0  0  0
   68.8509   34.0470   73.3103 C   0  0  0  0  0  0
   69.4075   35.1438   72.4360 C   0  0  0  0  0  0
   68.6034   36.2443   72.0039 C   0  0  0  0  0  0
   69.1313   37.2224   71.1488 C   0  0  0  0  0  0
   70.4667   37.1102   70.7179 C   0  0  0  0  0  0
   70.9508   38.0622   69.8712 O   0  0  0  0  0  0
   71.2719   36.0283   71.1410 C   0  0  0  0  0  0
   70.7295   35.0693   71.9872 C   0  0  0  0  0  0
   68.9447   34.3345   74.7449 C   0  0  0  0  0  0
   70.0091   33.8715   75.5147 C   0  0  0  0  0  0
   70.1261   34.1502   76.8473 C   0  0  0  0  0  0
   69.1589   34.9232   77.4692 C   0  0  0  0  0  0
   69.2186   35.2785   78.7863 O   0  0  0  0  0  0
   68.5572   34.4848   79.7669 C   0  0  0  0  0  0
   68.8423   35.1244   81.0988 C   0  0  0  0  0  0
   70.2318   35.1005   81.4653 N   0  0  0  0  0  0
   70.5911   36.2486   82.2989 C   0  0  0  0  0  0
   70.5184   33.8778   82.2244 C   0  0  0  0  0  0
   68.0687   35.4053   76.7242 C   0  0  0  0  0  0
   67.9753   35.1121   75.3927 C   0  0  0  0  0  0
   70.8230   38.9701   70.0647 H   0  0  0  0  0  0
  1  2  1  0  0  0
  2  3  1  0  0  0
  3  4  1  0  0  0
  3 10  1  0  0  0
  4  5  2  0  0  0
  4  9  1  0  0  0
  5  6  1  0  0  0
  6  7  2  0  0  0
  7  8  1  0  0  0
  8  9  2  0  0  0
 10 11  1  0  0  0
 10 18  1  0  0  0
 11 12  2  0  0  0
 11 17  1  0  0  0
 12 13  1  0  0  0
 13 14  2  0  0  0
 14 15  1  0  0  0
 14 16  1  0  0  0
 15 30  1  0  0  0
 16 17  2  0  0  0
 18 19  2  0  0  0
 18 29  1  0  0  0
 19 20  1  0  0  0
 20 21  2  0  0  0
 21 22  1  0  0  0
 21 28  1  0  0  0
 22 23  1  0  0  0
 23 24  1  0  0  0
 24 25  1  0  0  0
 25 26  1  0  0  0
 25 27  1  0  0  0
 28 29  2  0  0  0
M  END
>  <CHROM.0>
106.15160704,-64.26679473,106.51771912,2.08444615

>  <CHROM.1>
87.53412727,-36.54380537,69.93251015,92.96673663,84.16179568,48.55407701
-93.88598120,178.76004548,-64.46478284,149.82029875,68.71828404,34.39875639
74.86188536,1.76182130,-0.76336450,-1.51917378

>  <FORMUL>
      OHT    C26 H29 N1 O2

>  <HET>
 OHT  A 600      29

>  <HETNAM>
     OHT 4-HYDROXYTAMOXIFEN

>  <Name>
OHT.pdb

>  <RI>
3.98652e+07

>  <Rbt.Current_Directory>
/home/malgorzata/Desktop/rDOCK_IFD/Wyniki/5_estrogen_receptor

>  <Rbt.Executable>
rbdock ($Id: //depot/dev/client3/rdock/2013.1/src/exe/rbdock.cxx#4 $)

>  <Rbt.Library>
libRbt.so (2013.1, Build901 2013/11/27)

>  <Rbt.Parameter_File>
/home/malgorzata/Desktop/rDock_2013.1_src/data/scripts/dock.prm

>  <Rbt.Receptor>
cavity.prm

>  <SCORE>
-48.1658

>  <SCORE.INTER>
-11.6376

>  <SCORE.INTER.CONST>
1

>  <SCORE.INTER.POLAR>
-1.19896

>  <SCORE.INTER.REPUL>
0.150763

>  <SCORE.INTER.ROT>
9

>  <SCORE.INTER.VDW>
-22.7149

>  <SCORE.INTER.norm>
-0.401296

>  <SCORE.INTRA>
-2.7486

>  <SCORE.INTRA.DIHEDRAL>
1.35773

>  <SCORE.INTRA.DIHEDRAL.0>
14.7815

>  <SCORE.INTRA.POLAR>
0

>  <SCORE.INTRA.POLAR.0>
0

>  <SCORE.INTRA.REPUL>
0

>  <SCORE.INTRA.REPUL.0>
0

>  <SCORE.INTRA.VDW>
-3.42747

>  <SCORE.INTRA.VDW.0>
-0.0652974

>  <SCORE.INTRA.norm>
-0.0947794

>  <SCORE.RESTR>
0

>  <SCORE.RESTR.CAVITY>
0

>  <SCORE.RESTR.norm>
0

>  <SCORE.SYSTEM>
-33.7796

>  <SCORE.SYSTEM.CONST>
0

>  <SCORE.SYSTEM.DIHEDRAL>
1.04784

>  <SCORE.SYSTEM.REPUL>
1.18802

>  <SCORE.SYSTEM.VDW>
-40.2436

>  <SCORE.SYSTEM.norm>
-1.16481

>  <SCORE.heavy>
29

>  <SCORE.norm>
-1.66089

$$$$
OHT.pdb
  rDOCK(R)          3D
libRbt.so/2013.1/901 2013/11/27
 30 32  0  0  0  0  0  0  0  0999 V2000
   66.3274   34.1979   81.6190 C   0  0  0  0  0  0
   66.3365   34.7298   80.2121 C   0  0  0  0  0  0
   67.6302   35.4429   79.8777 C   0  0  0  0  0  0
   67.4868   36.9271   79.7718 C   0  0  0  0  0  0
   68.1803   37.6477   78.7764 C   0  0  0  0  0  0
   68.0072   39.0262   78.6480 C   0  0  0  0  0  0
   67.1590   39.7182   79.4899 C   0  0  0  0  0  0
   66.4765   39.0322   80.4662 C   0  0  0  0  0  0
   66.6400   37.6492   80.6038 C   0  0  0  0  0  0
   68.8101   34.7810   79.6927 C   0  0  0  0  0  0
   69.8179   34.5370   80.7892 C   0  0  0  0  0  0
   70.1195   33.2196   81.2560 C   0  0  0  0  0  0
   71.0213   33.0251   82.3121 C   0  0  0  0  0  0
   71.6299   34.1443   82.9111 C   0  0  0  0  0  0
   72.4873   33.9309   83.9489 O   0  0  0  0  0  0
   71.3415   35.4510   82.4559 C   0  0  0  0  0  0
   70.4444   35.6222   81.4092 C   0  0  0  0  0  0
   69.2211   34.2523   78.3885 C   0  0  0  0  0  0
   69.1991   32.8870   78.1137 C   0  0  0  0  0  0
   69.5548   32.3781   76.8965 C   0  0  0  0  0  0
   69.9520   33.2404   75.8872 C   0  0  0  0  0  0
   70.2879   32.8187   74.6326 O   0  0  0  0  0  0
   69.5780   33.3159   73.5023 C   0  0  0  0  0  0
   70.1432   34.6790   73.2074 C   0  0  0  0  0  0
   69.6365   35.2649   71.9968 N   0  0  0  0  0  0
   68.4388   36.0687   72.2449 C   0  0  0  0  0  0
   70.6586   36.1383   71.4087 C   0  0  0  0  0  0
   69.9893   34.6245   76.1294 C   0  0  0  0  0  0
   69.6285   35.1077   77.3559 C   0  0  0  0  0  0
   72.8629   34.6590   84.4036 H   0  0  0  0  0  0
  1  2  1  0  0  0
  2  3  1  0  0  0
  3  4  1  0  0  0
  3 10  1  0  0  0
  4  5  2  0  0  0
  4  9  1  0  0  0
  5  6  1  0  0  0
  6  7  2  0  0  0
  7  8  1  0  0  0
  8  9  2  0  0  0
 10 11  1  0  0  0
 10 18  1  0  0  0
 11 12  2  0  0  0
 11 17  1  0  0  0
 12 13  1  0  0  0
 13 14  2  0  0  0
 14 15  1  0  0  0
 14 16  1  0  0  0
 15 30  1  0  0  0
 16 17  2  0  0  0
 18 19  2  0  0  0
 18 29  1  0  0  0
 19 20  1  0  0  0
 20 21  2  0  0  0
 21 22  1  0  0  0
 21 28  1  0  0  0
 22 23  1  0  0  0
 23 24  1  0  0  0
 24 25  1  0  0  0
 25 26  1  0  0  0
 25 27  1  0  0  0
 28 29  2  0  0  0
M  END
>  <CHROM.0>
-86.61387106,-63.78911403,123.00261812,-175.69037599

>  <CHROM.1>
-108.22031758,-140.89050735,-92.72766809,114.36196178,-106.69392932,-175.94944769
121.53354274,79.66047898,173.45201785,90.56292820,69.20343192,35.14356344
78.33875033,1.60516363,-0.91628589,1.55199225

>  <FORMUL>
      OHT    C26 H29 N1 O2

>  <HET>
 OHT  A 600      29

>  <HETNAM>
     OHT 4-HYDROXYTAMOXIFEN

>  <Name>
OHT.pdb

>  <RI>
3.98652e+07

>  <Rbt.Current_Directory>
/home/malgorzata/Desktop/rDOCK_IFD/Wyniki/5_estrogen_receptor

>  <Rbt.Executable>
rbdock ($Id: //depot/dev/client3/rdock/2013.1/src/exe/rbdock.cxx#4 $)

>  <Rbt.Library>
libRbt.so (2013.1, Build901 2013/11/27)

>  <Rbt.Parameter_File>
/home/malgorzata/Desktop/rDock_2013.1_src/data/scripts/dock.prm

>  <Rbt.Receptor>
cavity.prm

>  <SCORE>
-46.8493

>  <SCORE.INTER>
-10.2511

>  <SCORE.INTER.CONST>
1

>  <SCORE.INTER.POLAR>
0

>  <SCORE.INTER.REPUL>
0.0344066

>  <SCORE.INTER.ROT>
9

>  <SCORE.INTER.VDW>
-24.8231

>  <SCORE.INTER.norm>
-0.353486

>  <SCORE.INTRA>
-2.70204

>  <SCORE.INTRA.DIHEDRAL>
-1.67722

>  <SCORE.INTRA.DIHEDRAL.0>
14.7815

>  <SCORE.INTRA.POLAR>
0

>  <SCORE.INTRA.POLAR.0>
0

>  <SCORE.INTRA.REPUL>
0

>  <SCORE.INTRA.REPUL.0>
0

>  <SCORE.INTRA.VDW>
-1.86343

>  <SCORE.INTRA.VDW.0>
-0.0652974

>  <SCORE.INTRA.norm>
-0.0931737

>  <SCORE.RESTR>
0

>  <SCORE.RESTR.CAVITY>
0

>  <SCORE.RESTR.norm>
0

>  <SCORE.SYSTEM>
-33.8962

>  <SCORE.SYSTEM.CONST>
0

>  <SCORE.SYSTEM.DIHEDRAL>
1.00527

>  <SCORE.SYSTEM.REPUL>
1.17297

>  <SCORE.SYSTEM.VDW>
-40.2637

>  <SCORE.SYSTEM.norm>
-1.16883

>  <SCORE.heavy>
29

>  <SCORE.norm>
-1.61549

$$$$
OHT.pdb
  rDOCK(R)          3D
libRbt.so/2013.1/901 2013/11/27
 30 32  0  0  0  0  0  0  0  0999 V2000
   67.1370   39.3228   80.2862 C   0  0  0  0  0  0
   66.4125   38.0257   80.5201 C   0  0  0  0  0  0
   67.1256   37.1443   81.5244 C   0  0  0  0  0  0
   66.2932   36.7993   82.7171 C   0  0  0  0  0  0
   66.5663   37.3751   83.9760 C   0  0  0  0  0  0
   65.7582   37.0898   85.0771 C   0  0  0  0  0  0
   64.6771   36.2379   84.9645 C   0  0  0  0  0  0
   64.3974   35.6670   83.7457 C   0  0  0  0  0  0
   65.1991   35.9468   82.6334 C   0  0  0  0  0  0
   68.4085   36.7121   81.3457 C   0  0  0  0  0  0
   68.8385   35.7958   80.2263 C   0  0  0  0  0  0
   68.5747   34.3910   80.2590 C   0  0  0  0  0  0
   69.0315   33.5543   79.2305 C   0  0  0  0  0  0
   69.7554   34.1132   78.1603 C   0  0  0  0  0  0
   70.2060   33.2769   77.1830 O   0  0  0  0  0  0
   70.0195   35.5011   78.1160 C   0  0  0  0  0  0
   69.5593   36.3124   79.1454 C   0  0  0  0  0  0
   69.5006   37.0906   82.2476 C   0  0  0  0  0  0
   69.5129   38.3184   82.9050 C   0  0  0  0  0  0
   70.5093   38.6782   83.7681 C   0  0  0  0  0  0
   71.5516   37.7980   84.0104 C   0  0  0  0  0  0
   72.5663   38.0632   84.8848 O   0  0  0  0  0  0
   72.4837   39.1940   85.7470 C   0  0  0  0  0  0
   73.1298   40.3388   85.0147 C   0  0  0  0  0  0
   72.5705   40.5811   83.7131 N   0  0  0  0  0  0
   72.0256   41.9349   83.6020 C   0  0  0  0  0  0
   73.6139   40.4240   82.6933 C   0  0  0  0  0  0
   71.5738   36.5508   83.3623 C   0  0  0  0  0  0
   70.5649   36.2155   82.5035 C   0  0  0  0  0  0
   69.9484   32.3760   77.1819 H   0  0  0  0  0  0
  1  2  1  0  0  0
  2  3  1  0  0  0
  3  4  1  0  0  0
  3 10  1  0  0  0
  4  5  2  0  0  0
  4  9  1  0  0  0
  5  6  1  0  0  0
  6  7  2  0  0  0
  7  8  1  0  0  0
  8  9  2  0  0  0
 10 11  1  0  0  0
 10 18  1  0  0  0
 11 12  2  0  0  0
 11 17  1  0  0  0
 12 13  1  0  0  0
 13 14  2  0  0  0
 14 15  1  0  0  0
 14 16  1  0  0  0
 15 30  1  0  0  0
 16 17  2  0  0  0
 18 19  2  0  0  0
 18 29  1  0  0  0
 19 20  1  0  0  0
 20 21  2  0  0  0
 21 22  1  0  0  0
 21 28  1  0  0  0
 22 23  1  0  0  0
 23 24  1  0  0  0
 24 25  1  0  0  0
 25 26  1  0  0  0
 25 27  1  0  0  0
 28 29  2  0  0  0
M  END
>  <CHROM.0>
78.85931369,-63.43093564,111.96152406,-170.99181364

>  <CHROM.1>
121.22672837,-107.78221519,-64.14347220,-76.98916949,-31.13643935,7.08707482
9.56537376,-90.92468758,54.79737552,120.52971791,69.30783860,37.24006925
82.18650746,2.27118641,-0.28580037,-2.19327567

>  <FORMUL>
      OHT    C26 H29 N1 O2

>  <HET>
 OHT  A 600      29

>  <HETNAM>
     OHT 4-HYDROXYTAMOXIFEN

>  <Name>
OHT.pdb

>  <RI>
3.98652e+07

>  <Rbt.Current_Directory>
/home/malgorzata/Desktop/rDOCK_IFD/Wyniki/5_estrogen_receptor

>  <Rbt.Executable>
rbdock ($Id: //depot/dev/client3/rdock/2013.1/src/exe/rbdock.cxx#4 $)

>  <Rbt.Library>
libRbt.so (2013.1, Build901 2013/11/27)

>  <Rbt.Parameter_File>
/home/malgorzata/Desktop/rDock_2013.1_src/data/scripts/dock.prm

>  <Rbt.Receptor>
cavity.prm

>  <SCORE>
-43.1898

>  <SCORE.INTER>
-5.38472

>  <SCORE.INTER.CONST>
1

>  <SCORE.INTER.POLAR>
0

>  <SCORE.INTER.REPUL>
0

>  <SCORE.INTER.ROT>
9

>  <SCORE.INTER.VDW>
-19.7847

>  <SCORE.INTER.norm>
-0.18568

>  <SCORE.INTRA>
-3.86974

>  <SCORE.INTRA.DIHEDRAL>
-2.34364

>  <SCORE.INTRA.DIHEDRAL.0>
14.7815

>  <SCORE.INTRA.POLAR>
0

>  <SCORE.INTRA.POLAR.0>
0

>  <SCORE.INTRA.REPUL>
0

>  <SCORE.INTRA.REPUL.0>
0

>  <SCORE.INTRA.VDW>
-2.69791

>  <SCORE.INTRA.VDW.0>
-0.0652974

>  <SCORE.INTRA.norm>
-0.133439

>  <SCORE.RESTR>
0.003274

>  <SCORE.RESTR.CAVITY>
0.003274

>  <SCORE.RESTR.norm>
0.000112897

>  <SCORE.SYSTEM>
-33.9387

>  <SCORE.SYSTEM.CONST>
0

>  <SCORE.SYSTEM.DIHEDRAL>
1.12844

>  <SCORE.SYSTEM.REPUL>
1.13807

>  <SCORE.SYSTEM.VDW>
-40.1932

>  <SCORE.SYSTEM.norm>
-1.1703

>  <SCORE.heavy>
29

>  <SCORE.norm>
-1.4893

$$$$
OHT.pdb
  rDOCK(R)          3D
libRbt.so/2013.1/901 2013/11/27
 30 32  0  0  0  0  0  0  0  0999 V2000
   66.5533   31.5429   81.6730 C   0  0  0  0  0  0
   66.1356   32.7335   80.8544 C   0  0  0  0  0  0
   67.2480   33.7520   80.7159 C   0  0  0  0  0  0
   66.9785   35.0358   81.4328 C   0  0  0  0  0  0
   66.2477   36.0689   80.8085 C   0  0  0  0  0  0
   65.9550   37.2468   81.4966 C   0  0  0  0  0  0
   66.3738   37.4325   82.7994 C   0  0  0  0  0  0
   67.0880   36.4369   83.4225 C   0  0  0  0  0  0
   67.3861   35.2500   82.7438 C   0  0  0  0  0  0
   68.3854   33.5086   80.0005 C   0  0  0  0  0  0
   69.6089   32.8342   80.5709 C   0  0  0  0  0  0
   70.3846   33.4349   81.6110 C   0  0  0  0  0  0
   71.5469   32.8109   82.0866 C   0  0  0  0  0  0
   71.9446   31.5815   81.5279 C   0  0  0  0  0  0
   73.0886   31.0046   81.9927 O   0  0  0  0  0  0
   71.1840   30.9769   80.5013 C   0  0  0  0  0  0
   70.0365   31.6120   80.0434 C   0  0  0  0  0  0
   68.5317   33.9004   78.5953 C   0  0  0  0  0  0
   69.0757   33.0357   77.6486 C   0  0  0  0  0  0
   69.1970   33.3742   76.3303 C   0  0  0  0  0  0
   68.7648   34.6197   75.9041 C   0  0  0  0  0  0
   68.8157   35.0231   74.6005 O   0  0  0  0  0  0
   68.5337   34.0943   73.5580 C   0  0  0  0  0  0
   67.0659   33.7768   73.6530 C   0  0  0  0  0  0
   66.6175   32.8207   72.6781 N   0  0  0  0  0  0
   65.3737   32.1693   73.0916 C   0  0  0  0  0  0
   66.3742   33.4997   71.4002 C   0  0  0  0  0  0
   68.2131   35.5197   76.8323 C   0  0  0  0  0  0
   68.1031   35.1565   78.1452 C   0  0  0  0  0  0
   73.5456   31.3867   82.7160 H   0  0  0  0  0  0
  1  2  1  0  0  0
  2  3  1  0  0  0
  3  4  1  0  0  0
  3 10  1  0  0  0
  4  5  2  0  0  0
  4  9  1  0  0  0
  5  6  1  0  0  0
  6  7  2  0  0  0
  7  8  1  0  0  0
  8  9  2  0  0  0
 10 11  1  0  0  0
 10 18  1  0  0  0
 11 12  2  0  0  0
 11 17  1  0  0  0
 12 13  1  0  0  0
 13 14  2  0  0  0
 14 15  1  0  0  0
 14 16  1  0  0  0
 15 30  1  0  0  0
 16 17  2  0  0  0
 18 19  2  0  0  0
 18 29  1  0  0  0
 19 20  1  0  0  0
 20 21  2  0  0  0
 21 22  1  0  0  0
 21 28  1  0  0  0
 22 23  1  0  0  0
 23 24  1  0  0  0
 24 25  1  0  0  0
 25 26  1  0  0  0
 25 27  1  0  0  0
 28 29  2  0  0  0
M  END
>  <CHROM.0>
-63.75442588,-63.53435196,-168.00536710,3.98673394

>  <CHROM.1>
-111.96581824,-86.20503560,-86.70280417,-65.05036082,-135.28190288,5.34828373
37.90103570,68.77482751,-178.75165652,158.58895176,68.30007804,33.75993837
78.75268355,1.30067372,-0.68928788,1.38139270

>  <FORMUL>
      OHT    C26 H29 N1 O2

>  <HET>
 OHT  A 600      29

>  <HETNAM>
     OHT 4-HYDROXYTAMOXIFEN

>  <Name>
OHT.pdb

>  <RI>
3.98652e+07

>  <Rbt.Current_Directory>
/home/malgorzata/Desktop/rDOCK_IFD/Wyniki/5_estrogen_receptor

>  <Rbt.Executable>
rbdock ($Id: //depot/dev/client3/rdock/2013.1/src/exe/rbdock.cxx#4 $)

>  <Rbt.Library>
libRbt.so (2013.1, Build901 2013/11/27)

>  <Rbt.Parameter_File>
/home/malgorzata/Desktop/rDock_2013.1_src/data/scripts/dock.prm

>  <Rbt.Receptor>
cavity.prm

>  <SCORE>
-42.6131

>  <SCORE.INTER>
-3.84773

>  <SCORE.INTER.CONST>
1

>  <SCORE.INTER.POLAR>
0

>  <SCORE.INTER.REPUL>
0

>  <SCORE.INTER.ROT>
9

>  <SCORE.INTER.VDW>
-18.2477

>  <SCORE.INTER.norm>
-0.13268

>  <SCORE.INTRA>
-4.70511

>  <SCORE.INTRA.DIHEDRAL>
-5.51775

>  <SCORE.INTRA.DIHEDRAL.0>
14.7815

>  <SCORE.INTRA.POLAR>
0

>  <SCORE.INTRA.POLAR.0>
0

>  <SCORE.INTRA.REPUL>
0

>  <SCORE.INTRA.REPUL.0>
0

>  <SCORE.INTRA.VDW>
-1.94624

>  <SCORE.INTRA.VDW.0>
-0.0652974

>  <SCORE.INTRA.norm>
-0.162245

>  <SCORE.RESTR>
0

>  <SCORE.RESTR.CAVITY>
0

>  <SCORE.RESTR.norm>
0

>  <SCORE.SYSTEM>
-34.0603

>  <SCORE.SYSTEM.CONST>
0

>  <SCORE.SYSTEM.DIHEDRAL>
1.01642

>  <SCORE.SYSTEM.REPUL>
1.14898

>  <SCORE.SYSTEM.VDW>
-40.3134

>  <SCORE.SYSTEM.norm>
-1.17449

>  <SCORE.heavy>
29

>  <SCORE.norm>
-1.46942

$$$$
