OHT.pdb
  rDOCK(R)          3D
libRbt.so/2013.1/901 2013/11/27
 30 32  0  0  0  0  0  0  0  0999 V2000
   70.6339   30.7840   70.8868 C   0  0  0  0  0  0
   69.5754   30.4863   71.9131 C   0  0  0  0  0  0
   68.5447   31.5919   72.0102 C   0  0  0  0  0  0
   68.7784   32.5314   73.1492 C   0  0  0  0  0  0
   69.0787   33.8895   72.9118 C   0  0  0  0  0  0
   69.2481   34.7753   73.9764 C   0  0  0  0  0  0
   69.1299   34.3470   75.2840 C   0  0  0  0  0  0
   68.8392   33.0269   75.5336 C   0  0  0  0  0  0
   68.6649   32.1290   74.4744 C   0  0  0  0  0  0
   67.5043   31.7087   71.1336 C   0  0  0  0  0  0
   66.6100   30.5610   70.7329 C   0  0  0  0  0  0
   65.9528   29.7431   71.7043 C   0  0  0  0  0  0
   65.1693   28.6506   71.3056 C   0  0  0  0  0  0
   65.0349   28.3654   69.9337 C   0  0  0  0  0  0
   64.2847   27.2865   69.5720 O   0  0  0  0  0  0
   65.6776   29.1689   68.9644 C   0  0  0  0  0  0
   66.4503   30.2458   69.3802 C   0  0  0  0  0  0
   67.1645   32.9751   70.4777 C   0  0  0  0  0  0
   65.8504   33.4312   70.4064 C   0  0  0  0  0  0
   65.5178   34.6204   69.8213 C   0  0  0  0  0  0
   66.5144   35.4141   69.2765 C   0  0  0  0  0  0
   66.2731   36.6315   68.7069 O   0  0  0  0  0  0
   67.3119   37.3040   68.0014 C   0  0  0  0  0  0
   67.4244   38.6754   68.6102 C   0  0  0  0  0  0
   68.3259   39.5470   67.9077 N   0  0  0  0  0  0
   67.7832   40.9006   67.7839 C   0  0  0  0  0  0
   69.5968   39.6298   68.6367 C   0  0  0  0  0  0
   67.8517   34.9843   69.3276 C   0  0  0  0  0  0
   68.1576   33.7905   69.9186 C   0  0  0  0  0  0
   64.7041   26.4866   69.3227 H   0  0  0  0  0  0
  1  2  1  0  0  0
  2  3  1  0  0  0
  3  4  1  0  0  0
  3 10  1  0  0  0
  4  5  2  0  0  0
  4  9  1  0  0  0
  5  6  1  0  0  0
  6  7  2  0  0  0
  7  8  1  0  0  0
  8  9  2  0  0  0
 10 11  1  0  0  0
 10 18  1  0  0  0
 11 12  2  0  0  0
 11 17  1  0  0  0
 12 13  1  0  0  0
 13 14  2  0  0  0
 14 15  1  0  0  0
 14 16  1  0  0  0
 15 30  1  0  0  0
 16 17  2  0  0  0
 18 19  2  0  0  0
 18 29  1  0  0  0
 19 20  1  0  0  0
 20 21  2  0  0  0
 21 22  1  0  0  0
 21 28  1  0  0  0
 22 23  1  0  0  0
 23 24  1  0  0  0
 24 25  1  0  0  0
 25 26  1  0  0  0
 25 27  1  0  0  0
 28 29  2  0  0  0
M  END
>  <CHROM.0>
123.25876258,-58.46330711,-14.51823812,39.42997850

>  <CHROM.1>
-99.08215994,115.75938881,47.81667601,52.63623815,-133.89528739,-101.62295331
-171.12211686,-126.02195872,-173.06469227,138.01332145,67.48446520,33.42093748
70.67939524,-1.82537613,-0.94593481,-0.47400299

>  <FORMUL>
      OHT    C26 H29 N1 O2

>  <HET>
 OHT  A 600      29

>  <HETNAM>
     OHT 4-HYDROXYTAMOXIFEN

>  <Name>
OHT.pdb

>  <RI>
2.13257e+07

>  <Rbt.Current_Directory>
/home/malgorzata/Desktop/rDOCK_IFD/Wyniki/5_estrogen_receptor

>  <Rbt.Executable>
rbdock ($Id: //depot/dev/client3/rdock/2013.1/src/exe/rbdock.cxx#4 $)

>  <Rbt.Library>
libRbt.so (2013.1, Build901 2013/11/27)

>  <Rbt.Parameter_File>
/home/malgorzata/Desktop/rDock_2013.1_src/data/scripts/soft_docking.prm

>  <Rbt.Receptor>
cavity.prm

>  <SCORE>
-76.5716

>  <SCORE.INTER>
-19.0686

>  <SCORE.INTER.CONST>
1

>  <SCORE.INTER.POLAR>
-0.781065

>  <SCORE.INTER.REPUL>
0

>  <SCORE.INTER.ROT>
9

>  <SCORE.INTER.VDW>
-30.813

>  <SCORE.INTER.norm>
-0.65754

>  <SCORE.INTRA>
-0.228207

>  <SCORE.INTRA.DIHEDRAL>
5.73922

>  <SCORE.INTRA.DIHEDRAL.0>
14.7815

>  <SCORE.INTRA.POLAR>
0

>  <SCORE.INTRA.POLAR.0>
0

>  <SCORE.INTRA.REPUL>
0

>  <SCORE.INTRA.REPUL.0>
0

>  <SCORE.INTRA.VDW>
-1.37605

>  <SCORE.INTRA.VDW.0>
-0.0652974

>  <SCORE.INTRA.norm>
-0.00786919

>  <SCORE.RESTR>
1.0949

>  <SCORE.RESTR.CAVITY>
1.0949

>  <SCORE.RESTR.norm>
0.0377551

>  <SCORE.SYSTEM>
-58.3696

>  <SCORE.SYSTEM.CONST>
0

>  <SCORE.SYSTEM.DIHEDRAL>
2.88681

>  <SCORE.SYSTEM.POLAR>
-0.293454

>  <SCORE.SYSTEM.REPUL>
0.0466093

>  <SCORE.SYSTEM.VDW>
-59.0483

>  <SCORE.SYSTEM.norm>
-2.01275

>  <SCORE.heavy>
29

>  <SCORE.norm>
-2.6404

$$$$
OHT.pdb
  rDOCK(R)          3D
libRbt.so/2013.1/901 2013/11/27
 30 32  0  0  0  0  0  0  0  0999 V2000
   69.3855   38.9946   77.7581 C   0  0  0  0  0  0
   70.0869   38.1724   78.8041 C   0  0  0  0  0  0
   69.1201   37.3449   79.6254 C   0  0  0  0  0  0
   68.7105   37.9973   80.9065 C   0  0  0  0  0  0
   69.6278   38.1335   81.9701 C   0  0  0  0  0  0
   69.2583   38.7863   83.1465 C   0  0  0  0  0  0
   67.9901   39.3108   83.3009 C   0  0  0  0  0  0
   67.0833   39.1859   82.2754 C   0  0  0  0  0  0
   67.4424   38.5351   81.0897 C   0  0  0  0  0  0
   68.6723   36.1194   79.2228 C   0  0  0  0  0  0
   67.9505   35.1498   80.1263 C   0  0  0  0  0  0
   66.5290   35.1763   80.2778 C   0  0  0  0  0  0
   65.8887   34.2982   81.1641 C   0  0  0  0  0  0
   66.6621   33.3859   81.9065 C   0  0  0  0  0  0
   66.0189   32.5566   82.7760 O   0  0  0  0  0  0
   68.0678   33.3487   81.7626 C   0  0  0  0  0  0
   68.6828   34.2279   80.8802 C   0  0  0  0  0  0
   68.8685   35.6174   77.8594 C   0  0  0  0  0  0
   70.1354   35.3090   77.3697 C   0  0  0  0  0  0
   70.3351   34.8169   76.1107 C   0  0  0  0  0  0
   69.2461   34.6092   75.2795 C   0  0  0  0  0  0
   69.3537   34.0871   74.0224 O   0  0  0  0  0  0
   68.6169   34.6636   72.9483 C   0  0  0  0  0  0
   69.3437   35.9220   72.5576 C   0  0  0  0  0  0
   70.7520   35.7324   72.3421 N   0  0  0  0  0  0
   71.0713   35.6211   70.9181 C   0  0  0  0  0  0
   71.4907   36.8770   72.8874 C   0  0  0  0  0  0
   67.9526   34.9120   75.7391 C   0  0  0  0  0  0
   67.7802   35.4033   77.0027 C   0  0  0  0  0  0
   65.9087   31.6504   82.5646 H   0  0  0  0  0  0
  1  2  1  0  0  0
  2  3  1  0  0  0
  3  4  1  0  0  0
  3 10  1  0  0  0
  4  5  2  0  0  0
  4  9  1  0  0  0
  5  6  1  0  0  0
  6  7  2  0  0  0
  7  8  1  0  0  0
  8  9  2  0  0  0
 10 11  1  0  0  0
 10 18  1  0  0  0
 11 12  2  0  0  0
 11 17  1  0  0  0
 12 13  1  0  0  0
 13 14  2  0  0  0
 14 15  1  0  0  0
 14 16  1  0  0  0
 15 30  1  0  0  0
 16 17  2  0  0  0
 18 19  2  0  0  0
 18 29  1  0  0  0
 19 20  1  0  0  0
 20 21  2  0  0  0
 21 22  1  0  0  0
 21 28  1  0  0  0
 22 23  1  0  0  0
 23 24  1  0  0  0
 24 25  1  0  0  0
 25 26  1  0  0  0
 25 27  1  0  0  0
 28 29  2  0  0  0
M  END
>  <CHROM.0>
124.79830937,-60.66800692,-167.80479261,-49.97152927

>  <CHROM.1>
-95.27463134,-70.46006076,166.67994310,88.75182725,67.22452433,105.76120843
-136.38513562,77.17387220,50.23403221,99.87529897,68.71719485,35.98536035
78.23361230,-0.95611560,1.10401826,0.90358531

>  <FORMUL>
      OHT    C26 H29 N1 O2

>  <HET>
 OHT  A 600      29

>  <HETNAM>
     OHT 4-HYDROXYTAMOXIFEN

>  <Name>
OHT.pdb

>  <RI>
2.13257e+07

>  <Rbt.Current_Directory>
/home/malgorzata/Desktop/rDOCK_IFD/Wyniki/5_estrogen_receptor

>  <Rbt.Executable>
rbdock ($Id: //depot/dev/client3/rdock/2013.1/src/exe/rbdock.cxx#4 $)

>  <Rbt.Library>
libRbt.so (2013.1, Build901 2013/11/27)

>  <Rbt.Parameter_File>
/home/malgorzata/Desktop/rDock_2013.1_src/data/scripts/soft_docking.prm

>  <Rbt.Receptor>
cavity.prm

>  <SCORE>
-75.4549

>  <SCORE.INTER>
-12.084

>  <SCORE.INTER.CONST>
1

>  <SCORE.INTER.POLAR>
0

>  <SCORE.INTER.REPUL>
0

>  <SCORE.INTER.ROT>
9

>  <SCORE.INTER.VDW>
-26.484

>  <SCORE.INTER.norm>
-0.416688

>  <SCORE.INTRA>
-3.11479

>  <SCORE.INTRA.DIHEDRAL>
2.42131

>  <SCORE.INTRA.DIHEDRAL.0>
14.7815

>  <SCORE.INTRA.POLAR>
0

>  <SCORE.INTRA.POLAR.0>
0

>  <SCORE.INTRA.REPUL>
0

>  <SCORE.INTRA.REPUL.0>
0

>  <SCORE.INTRA.VDW>
-3.59905

>  <SCORE.INTRA.VDW.0>
-0.0652974

>  <SCORE.INTRA.norm>
-0.107407

>  <SCORE.RESTR>
0.332451

>  <SCORE.RESTR.CAVITY>
0.332451

>  <SCORE.RESTR.norm>
0.0114638

>  <SCORE.SYSTEM>
-60.5886

>  <SCORE.SYSTEM.CONST>
0

>  <SCORE.SYSTEM.DIHEDRAL>
3.75061

>  <SCORE.SYSTEM.POLAR>
-0.181922

>  <SCORE.SYSTEM.REPUL>
0.132548

>  <SCORE.SYSTEM.VDW>
-62.5081

>  <SCORE.SYSTEM.norm>
-2.08926

>  <SCORE.heavy>
29

>  <SCORE.norm>
-2.60189

$$$$
OHT.pdb
  rDOCK(R)          3D
libRbt.so/2013.1/901 2013/11/27
 30 32  0  0  0  0  0  0  0  0999 V2000
   64.5229   35.6612   72.2334 C   0  0  0  0  0  0
   65.1080   34.2883   72.0456 C   0  0  0  0  0  0
   66.5069   34.3362   71.4669 C   0  0  0  0  0  0
   66.7067   33.4183   70.3041 C   0  0  0  0  0  0
   66.1789   33.7389   69.0354 C   0  0  0  0  0  0
   66.4082   32.9053   67.9403 C   0  0  0  0  0  0
   67.1514   31.7485   68.0700 C   0  0  0  0  0  0
   67.6719   31.4202   69.2991 C   0  0  0  0  0  0
   67.4508   32.2491   70.4047 C   0  0  0  0  0  0
   67.4850   35.1459   71.9693 C   0  0  0  0  0  0
   68.1009   36.2929   71.2061 C   0  0  0  0  0  0
   67.3172   37.3929   70.7368 C   0  0  0  0  0  0
   67.9057   38.4198   69.9847 C   0  0  0  0  0  0
   69.2819   38.3573   69.6948 C   0  0  0  0  0  0
   69.8267   39.3568   68.9453 O   0  0  0  0  0  0
   70.0670   37.2763   70.1561 C   0  0  0  0  0  0
   69.4645   36.2685   70.8986 C   0  0  0  0  0  0
   68.0477   34.9632   73.3107 C   0  0  0  0  0  0
   68.9667   35.8625   73.8461 C   0  0  0  0  0  0
   69.4829   35.7220   75.1035 C   0  0  0  0  0  0
   69.0847   34.6515   75.8879 C   0  0  0  0  0  0
   69.5229   34.4576   77.1665 O   0  0  0  0  0  0
   70.6937   33.6824   77.4063 C   0  0  0  0  0  0
   71.1510   34.0176   78.8001 C   0  0  0  0  0  0
   70.5936   33.1627   79.8121 N   0  0  0  0  0  0
   70.7174   31.7489   79.4542 C   0  0  0  0  0  0
   71.3014   33.3762   81.0797 C   0  0  0  0  0  0
   68.1608   33.7222   75.3793 C   0  0  0  0  0  0
   67.6597   33.8856   74.1183 C   0  0  0  0  0  0
   69.4702   40.2223   68.9883 H   0  0  0  0  0  0
  1  2  1  0  0  0
  2  3  1  0  0  0
  3  4  1  0  0  0
  3 10  1  0  0  0
  4  5  2  0  0  0
  4  9  1  0  0  0
  5  6  1  0  0  0
  6  7  2  0  0  0
  7  8  1  0  0  0
  8  9  2  0  0  0
 10 11  1  0  0  0
 10 18  1  0  0  0
 11 12  2  0  0  0
 11 17  1  0  0  0
 12 13  1  0  0  0
 13 14  2  0  0  0
 14 15  1  0  0  0
 14 16  1  0  0  0
 15 30  1  0  0  0
 16 17  2  0  0  0
 18 19  2  0  0  0
 18 29  1  0  0  0
 19 20  1  0  0  0
 20 21  2  0  0  0
 21 22  1  0  0  0
 21 28  1  0  0  0
 22 23  1  0  0  0
 23 24  1  0  0  0
 24 25  1  0  0  0
 25 26  1  0  0  0
 25 27  1  0  0  0
 28 29  2  0  0  0
M  END
>  <CHROM.0>
-85.22629037,-60.28010992,-154.02893611,128.38953277

>  <CHROM.1>
-131.13967318,75.34575474,-114.82475525,60.20649199,-174.76150418,30.49012219
-90.50578874,162.24835749,90.59854219,48.43244756,68.40582522,34.75181100
73.07324633,2.20740819,-1.03098901,-0.80978359

>  <FORMUL>
      OHT    C26 H29 N1 O2

>  <HET>
 OHT  A 600      29

>  <HETNAM>
     OHT 4-HYDROXYTAMOXIFEN

>  <Name>
OHT.pdb

>  <RI>
2.13257e+07

>  <Rbt.Current_Directory>
/home/malgorzata/Desktop/rDOCK_IFD/Wyniki/5_estrogen_receptor

>  <Rbt.Executable>
rbdock ($Id: //depot/dev/client3/rdock/2013.1/src/exe/rbdock.cxx#4 $)

>  <Rbt.Library>
libRbt.so (2013.1, Build901 2013/11/27)

>  <Rbt.Parameter_File>
/home/malgorzata/Desktop/rDock_2013.1_src/data/scripts/soft_docking.prm

>  <Rbt.Receptor>
cavity.prm

>  <SCORE>
-73.3977

>  <SCORE.INTER>
-15.1412

>  <SCORE.INTER.CONST>
1

>  <SCORE.INTER.POLAR>
-0.795532

>  <SCORE.INTER.REPUL>
0

>  <SCORE.INTER.ROT>
9

>  <SCORE.INTER.VDW>
-26.8364

>  <SCORE.INTER.norm>
-0.522111

>  <SCORE.INTRA>
1.84832

>  <SCORE.INTRA.DIHEDRAL>
2.49993

>  <SCORE.INTRA.DIHEDRAL.0>
14.7815

>  <SCORE.INTRA.POLAR>
0

>  <SCORE.INTRA.POLAR.0>
0

>  <SCORE.INTRA.REPUL>
0

>  <SCORE.INTRA.REPUL.0>
0

>  <SCORE.INTRA.VDW>
1.34833

>  <SCORE.INTRA.VDW.0>
-0.0652974

>  <SCORE.INTRA.norm>
0.0637351

>  <SCORE.RESTR>
0.608428

>  <SCORE.RESTR.CAVITY>
0.608428

>  <SCORE.RESTR.norm>
0.0209803

>  <SCORE.SYSTEM>
-60.7132

>  <SCORE.SYSTEM.CONST>
0

>  <SCORE.SYSTEM.DIHEDRAL>
3.87142

>  <SCORE.SYSTEM.POLAR>
-0.209776

>  <SCORE.SYSTEM.REPUL>
0.119783

>  <SCORE.SYSTEM.VDW>
-62.5346

>  <SCORE.SYSTEM.norm>
-2.09356

>  <SCORE.heavy>
29

>  <SCORE.norm>
-2.53095

$$$$
OHT.pdb
  rDOCK(R)          3D
libRbt.so/2013.1/901 2013/11/27
 30 32  0  0  0  0  0  0  0  0999 V2000
   66.0860   33.7175   69.4489 C   0  0  0  0  0  0
   67.5389   34.0977   69.5303 C   0  0  0  0  0  0
   68.0422   34.1344   70.9584 C   0  0  0  0  0  0
   68.3324   32.7828   71.5269 C   0  0  0  0  0  0
   69.4973   32.0798   71.1529 C   0  0  0  0  0  0
   69.7913   30.8401   71.7215 C   0  0  0  0  0  0
   68.9519   30.2702   72.6585 C   0  0  0  0  0  0
   67.8119   30.9405   73.0334 C   0  0  0  0  0  0
   67.5071   32.1856   72.4719 C   0  0  0  0  0  0
   68.2105   35.2993   71.6508 C   0  0  0  0  0  0
   68.4246   36.6424   70.9968 C   0  0  0  0  0  0
   67.6016   37.0954   69.9190 C   0  0  0  0  0  0
   67.8553   38.3251   69.2946 C   0  0  0  0  0  0
   68.9329   39.1132   69.7411 C   0  0  0  0  0  0
   69.1717   40.2949   69.1053 O   0  0  0  0  0  0
   69.7514   38.6768   70.8077 C   0  0  0  0  0  0
   69.4839   37.4549   71.4120 C   0  0  0  0  0  0
   68.2155   35.3516   73.1159 C   0  0  0  0  0  0
   69.2190   36.0129   73.8199 C   0  0  0  0  0  0
   69.2269   36.0933   75.1839 C   0  0  0  0  0  0
   68.2036   35.5021   75.9073 C   0  0  0  0  0  0
   68.1159   35.5667   77.2684 O   0  0  0  0  0  0
   68.8973   36.5170   77.9862 C   0  0  0  0  0  0
   67.9937   37.6858   78.2720 C   0  0  0  0  0  0
   67.6063   37.7924   79.6520 N   0  0  0  0  0  0
   68.1954   38.9708   80.2897 C   0  0  0  0  0  0
   66.1462   37.9053   79.7448 C   0  0  0  0  0  0
   67.1753   34.8235   75.2304 C   0  0  0  0  0  0
   67.1911   34.7576   73.8654 C   0  0  0  0  0  0
   68.5999   41.0245   69.2422 H   0  0  0  0  0  0
  1  2  1  0  0  0
  2  3  1  0  0  0
  3  4  1  0  0  0
  3 10  1  0  0  0
  4  5  2  0  0  0
  4  9  1  0  0  0
  5  6  1  0  0  0
  6  7  2  0  0  0
  7  8  1  0  0  0
  8  9  2  0  0  0
 10 11  1  0  0  0
 10 18  1  0  0  0
 11 12  2  0  0  0
 11 17  1  0  0  0
 12 13  1  0  0  0
 13 14  2  0  0  0
 14 15  1  0  0  0
 14 16  1  0  0  0
 15 30  1  0  0  0
 16 17  2  0  0  0
 18 19  2  0  0  0
 18 29  1  0  0  0
 19 20  1  0  0  0
 20 21  2  0  0  0
 21 22  1  0  0  0
 21 28  1  0  0  0
 22 23  1  0  0  0
 23 24  1  0  0  0
 24 25  1  0  0  0
 25 26  1  0  0  0
 25 27  1  0  0  0
 28 29  2  0  0  0
M  END
>  <CHROM.0>
168.52821878,-61.83155989,-83.76889287,55.73495831

>  <CHROM.1>
78.28695620,75.87775810,-23.64024754,47.54643515,130.70090949,73.21526052
15.21922954,98.50117687,107.99092862,111.93621358,68.22743078,35.62604502
73.38438953,0.79103381,-1.49203595,-2.65090129

>  <FORMUL>
      OHT    C26 H29 N1 O2

>  <HET>
 OHT  A 600      29

>  <HETNAM>
     OHT 4-HYDROXYTAMOXIFEN

>  <Name>
OHT.pdb

>  <RI>
2.13257e+07

>  <Rbt.Current_Directory>
/home/malgorzata/Desktop/rDOCK_IFD/Wyniki/5_estrogen_receptor

>  <Rbt.Executable>
rbdock ($Id: //depot/dev/client3/rdock/2013.1/src/exe/rbdock.cxx#4 $)

>  <Rbt.Library>
libRbt.so (2013.1, Build901 2013/11/27)

>  <Rbt.Parameter_File>
/home/malgorzata/Desktop/rDock_2013.1_src/data/scripts/soft_docking.prm

>  <Rbt.Receptor>
cavity.prm

>  <SCORE>
-78.1704

>  <SCORE.INTER>
-20.5292

>  <SCORE.INTER.CONST>
1

>  <SCORE.INTER.POLAR>
-1.51618

>  <SCORE.INTER.REPUL>
0.262714

>  <SCORE.INTER.ROT>
9

>  <SCORE.INTER.VDW>
-31.0878

>  <SCORE.INTER.norm>
-0.707905

>  <SCORE.INTRA>
1.51771

>  <SCORE.INTRA.DIHEDRAL>
10.7414

>  <SCORE.INTRA.DIHEDRAL.0>
14.7815

>  <SCORE.INTRA.POLAR>
0

>  <SCORE.INTRA.POLAR.0>
0

>  <SCORE.INTRA.REPUL>
0

>  <SCORE.INTRA.REPUL.0>
0

>  <SCORE.INTRA.VDW>
-0.630572

>  <SCORE.INTRA.VDW.0>
-0.0652974

>  <SCORE.INTRA.norm>
0.0523348

>  <SCORE.RESTR>
0.158971

>  <SCORE.RESTR.CAVITY>
0.158971

>  <SCORE.RESTR.norm>
0.00548176

>  <SCORE.SYSTEM>
-59.3178

>  <SCORE.SYSTEM.CONST>
0

>  <SCORE.SYSTEM.DIHEDRAL>
4.20371

>  <SCORE.SYSTEM.POLAR>
-0.107184

>  <SCORE.SYSTEM.REPUL>
0.293683

>  <SCORE.SYSTEM.VDW>
-62.5237

>  <SCORE.SYSTEM.norm>
-2.04544

>  <SCORE.heavy>
29

>  <SCORE.norm>
-2.69553

$$$$
OHT.pdb
  rDOCK(R)          3D
libRbt.so/2013.1/901 2013/11/27
 30 32  0  0  0  0  0  0  0  0999 V2000
   69.4772   30.4857   71.8072 C   0  0  0  0  0  0
   68.0262   30.8807   71.7817 C   0  0  0  0  0  0
   67.7689   32.0575   70.8635 C   0  0  0  0  0  0
   67.5215   31.6663   69.4421 C   0  0  0  0  0  0
   67.9392   30.4080   68.9590 C   0  0  0  0  0  0
   67.6640   30.0251   67.6459 C   0  0  0  0  0  0
   66.9816   30.8652   66.7881 C   0  0  0  0  0  0
   66.5685   32.0953   67.2417 C   0  0  0  0  0  0
   66.8367   32.4901   68.5572 C   0  0  0  0  0  0
   67.7662   33.3498   71.3047 C   0  0  0  0  0  0
   67.8109   34.5499   70.3908 C   0  0  0  0  0  0
   68.7534   34.6472   69.3201 C   0  0  0  0  0  0
   68.8080   35.7966   68.5187 C   0  0  0  0  0  0
   67.9218   36.8589   68.7794 C   0  0  0  0  0  0
   68.0076   37.9734   67.9996 O   0  0  0  0  0  0
   66.9838   36.7726   69.8333 C   0  0  0  0  0  0
   66.9468   35.6257   70.6163 C   0  0  0  0  0  0
   67.7357   33.6964   72.7288 C   0  0  0  0  0  0
   66.7178   33.2493   73.5679 C   0  0  0  0  0  0
   66.6861   33.5416   74.9023 C   0  0  0  0  0  0
   67.6988   34.3080   75.4563 C   0  0  0  0  0  0
   67.7627   34.6147   76.7854 O   0  0  0  0  0  0
   68.2502   35.8880   77.1979 C   0  0  0  0  0  0
   69.7465   35.7623   77.2956 C   0  0  0  0  0  0
   70.2814   36.1963   78.5570 N   0  0  0  0  0  0
   70.7352   35.0667   79.3696 C   0  0  0  0  0  0
   71.4284   37.0818   78.3255 C   0  0  0  0  0  0
   68.7410   34.7791   74.6391 C   0  0  0  0  0  0
   68.7491   34.4726   73.3072 C   0  0  0  0  0  0
   68.0189   38.8225   68.3956 H   0  0  0  0  0  0
  1  2  1  0  0  0
  2  3  1  0  0  0
  3  4  1  0  0  0
  3 10  1  0  0  0
  4  5  2  0  0  0
  4  9  1  0  0  0
  5  6  1  0  0  0
  6  7  2  0  0  0
  7  8  1  0  0  0
  8  9  2  0  0  0
 10 11  1  0  0  0
 10 18  1  0  0  0
 11 12  2  0  0  0
 11 17  1  0  0  0
 12 13  1  0  0  0
 13 14  2  0  0  0
 14 15  1  0  0  0
 14 16  1  0  0  0
 15 30  1  0  0  0
 16 17  2  0  0  0
 18 19  2  0  0  0
 18 29  1  0  0  0
 19 20  1  0  0  0
 20 21  2  0  0  0
 21 22  1  0  0  0
 21 28  1  0  0  0
 22 23  1  0  0  0
 23 24  1  0  0  0
 24 25  1  0  0  0
 25 26  1  0  0  0
 25 27  1  0  0  0
 28 29  2  0  0  0
M  END
>  <CHROM.0>
40.06625182,-61.66661032,-163.79886330,165.53877714

>  <CHROM.1>
86.98020001,-20.06677778,166.31731937,-47.98129632,-57.12791797,-132.78251194
-144.07034429,-86.49021990,-127.72508834,107.81219790,68.19646334,34.02843978
72.25114459,3.03723391,-1.35972598,-0.40409092

>  <FORMUL>
      OHT    C26 H29 N1 O2

>  <HET>
 OHT  A 600      29

>  <HETNAM>
     OHT 4-HYDROXYTAMOXIFEN

>  <Name>
OHT.pdb

>  <RI>
2.13257e+07

>  <Rbt.Current_Directory>
/home/malgorzata/Desktop/rDOCK_IFD/Wyniki/5_estrogen_receptor

>  <Rbt.Executable>
rbdock ($Id: //depot/dev/client3/rdock/2013.1/src/exe/rbdock.cxx#4 $)

>  <Rbt.Library>
libRbt.so (2013.1, Build901 2013/11/27)

>  <Rbt.Parameter_File>
/home/malgorzata/Desktop/rDock_2013.1_src/data/scripts/soft_docking.prm

>  <Rbt.Receptor>
cavity.prm

>  <SCORE>
-73.999

>  <SCORE.INTER>
-15.2412

>  <SCORE.INTER.CONST>
1

>  <SCORE.INTER.POLAR>
-0.362236

>  <SCORE.INTER.REPUL>
0

>  <SCORE.INTER.ROT>
9

>  <SCORE.INTER.VDW>
-28.4096

>  <SCORE.INTER.norm>
-0.525559

>  <SCORE.INTRA>
2.07813

>  <SCORE.INTRA.DIHEDRAL>
7.34417

>  <SCORE.INTRA.DIHEDRAL.0>
14.7815

>  <SCORE.INTRA.POLAR>
0

>  <SCORE.INTRA.POLAR.0>
0

>  <SCORE.INTRA.REPUL>
0

>  <SCORE.INTRA.REPUL.0>
0

>  <SCORE.INTRA.VDW>
0.609291

>  <SCORE.INTRA.VDW.0>
-0.0652974

>  <SCORE.INTRA.norm>
0.0716595

>  <SCORE.RESTR>
0.209517

>  <SCORE.RESTR.CAVITY>
0.209517

>  <SCORE.RESTR.norm>
0.00722472

>  <SCORE.SYSTEM>
-61.0454

>  <SCORE.SYSTEM.CONST>
0

>  <SCORE.SYSTEM.DIHEDRAL>
1.23427

>  <SCORE.SYSTEM.POLAR>
-0.116805

>  <SCORE.SYSTEM.REPUL>
0.225037

>  <SCORE.SYSTEM.VDW>
-62.3906

>  <SCORE.SYSTEM.norm>
-2.10501

>  <SCORE.heavy>
29

>  <SCORE.norm>
-2.55169

$$$$
OHT.pdb
  rDOCK(R)          3D
libRbt.so/2013.1/901 2013/11/27
 30 32  0  0  0  0  0  0  0  0999 V2000
   69.0939   32.0757   69.7947 C   0  0  0  0  0  0
   67.7133   32.5159   70.1977 C   0  0  0  0  0  0
   67.5970   32.7412   71.6909 C   0  0  0  0  0  0
   66.5978   31.8500   72.3558 C   0  0  0  0  0  0
   66.7980   30.4541   72.4036 C   0  0  0  0  0  0
   65.8892   29.6292   73.0671 C   0  0  0  0  0  0
   64.7737   30.1550   73.6887 C   0  0  0  0  0  0
   64.5623   31.5127   73.6509 C   0  0  0  0  0  0
   65.4676   32.3508   72.9903 C   0  0  0  0  0  0
   68.3405   33.6739   72.3557 C   0  0  0  0  0  0
   68.8796   34.9301   71.7165 C   0  0  0  0  0  0
   70.2461   35.0426   71.3111 C   0  0  0  0  0  0
   70.7336   36.2399   70.7676 C   0  0  0  0  0  0
   69.8609   37.3351   70.6241 C   0  0  0  0  0  0
   70.3631   38.4941   70.1121 O   0  0  0  0  0  0
   68.5074   37.2344   71.0187 C   0  0  0  0  0  0
   68.0445   36.0399   71.5560 C   0  0  0  0  0  0
   68.7032   33.5313   73.7690 C   0  0  0  0  0  0
   68.0625   34.2642   74.7652 C   0  0  0  0  0  0
   68.3700   34.1265   76.0895 C   0  0  0  0  0  0
   69.3518   33.2262   76.4710 C   0  0  0  0  0  0
   69.6943   33.0009   77.7735 O   0  0  0  0  0  0
   68.7981   32.3030   78.6331 C   0  0  0  0  0  0
   69.6365   31.3542   79.4462 C   0  0  0  0  0  0
   68.8687   30.3684   80.1564 N   0  0  0  0  0  0
   69.0334   29.0343   79.5774 C   0  0  0  0  0  0
   69.3098   30.3165   81.5550 C   0  0  0  0  0  0
   70.0217   32.4715   75.4925 C   0  0  0  0  0  0
   69.6952   32.6283   74.1747 C   0  0  0  0  0  0
   70.1031   38.7807   69.2587 H   0  0  0  0  0  0
  1  2  1  0  0  0
  2  3  1  0  0  0
  3  4  1  0  0  0
  3 10  1  0  0  0
  4  5  2  0  0  0
  4  9  1  0  0  0
  5  6  1  0  0  0
  6  7  2  0  0  0
  7  8  1  0  0  0
  8  9  2  0  0  0
 10 11  1  0  0  0
 10 18  1  0  0  0
 11 12  2  0  0  0
 11 17  1  0  0  0
 12 13  1  0  0  0
 13 14  2  0  0  0
 14 15  1  0  0  0
 14 16  1  0  0  0
 15 30  1  0  0  0
 16 17  2  0  0  0
 18 19  2  0  0  0
 18 29  1  0  0  0
 19 20  1  0  0  0
 20 21  2  0  0  0
 21 22  1  0  0  0
 21 28  1  0  0  0
 22 23  1  0  0  0
 23 24  1  0  0  0
 24 25  1  0  0  0
 25 26  1  0  0  0
 25 27  1  0  0  0
 28 29  2  0  0  0
M  END
>  <CHROM.0>
112.58520759,-61.01628447,93.36053178,121.84605861

>  <CHROM.1>
-118.64876336,65.30069905,27.21191433,-101.64650211,-104.12244177,110.47557142
71.14503326,137.98583383,-167.18617120,108.86468974,68.42136058,33.05212548
74.11829761,1.53957333,-0.86444576,-1.07867451

>  <FORMUL>
      OHT    C26 H29 N1 O2

>  <HET>
 OHT  A 600      29

>  <HETNAM>
     OHT 4-HYDROXYTAMOXIFEN

>  <Name>
OHT.pdb

>  <RI>
2.13257e+07

>  <Rbt.Current_Directory>
/home/malgorzata/Desktop/rDOCK_IFD/Wyniki/5_estrogen_receptor

>  <Rbt.Executable>
rbdock ($Id: //depot/dev/client3/rdock/2013.1/src/exe/rbdock.cxx#4 $)

>  <Rbt.Library>
libRbt.so (2013.1, Build901 2013/11/27)

>  <Rbt.Parameter_File>
/home/malgorzata/Desktop/rDock_2013.1_src/data/scripts/soft_docking.prm

>  <Rbt.Receptor>
cavity.prm

>  <SCORE>
-85.7275

>  <SCORE.INTER>
-22.8904

>  <SCORE.INTER.CONST>
1

>  <SCORE.INTER.POLAR>
-0.35613

>  <SCORE.INTER.REPUL>
0.180583

>  <SCORE.INTER.ROT>
9

>  <SCORE.INTER.VDW>
-36.9825

>  <SCORE.INTER.norm>
-0.789326

>  <SCORE.INTRA>
-2.68967

>  <SCORE.INTRA.DIHEDRAL>
8.60507

>  <SCORE.INTRA.DIHEDRAL.0>
14.7815

>  <SCORE.INTRA.POLAR>
0

>  <SCORE.INTRA.POLAR.0>
0

>  <SCORE.INTRA.REPUL>
0

>  <SCORE.INTRA.REPUL.0>
0

>  <SCORE.INTRA.VDW>
-4.41068

>  <SCORE.INTRA.VDW.0>
-0.0652974

>  <SCORE.INTRA.norm>
-0.0927471

>  <SCORE.RESTR>
0

>  <SCORE.RESTR.CAVITY>
0

>  <SCORE.RESTR.norm>
0

>  <SCORE.SYSTEM>
-60.1474

>  <SCORE.SYSTEM.CONST>
0

>  <SCORE.SYSTEM.DIHEDRAL>
4.42085

>  <SCORE.SYSTEM.POLAR>
-0.157989

>  <SCORE.SYSTEM.REPUL>
0.142804

>  <SCORE.SYSTEM.VDW>
-62.5347

>  <SCORE.SYSTEM.norm>
-2.07405

>  <SCORE.heavy>
29

>  <SCORE.norm>
-2.95612

$$$$
OHT.pdb
  rDOCK(R)          3D
libRbt.so/2013.1/901 2013/11/27
 30 32  0  0  0  0  0  0  0  0999 V2000
   64.7503   31.6740   73.7518 C   0  0  0  0  0  0
   65.1917   33.0992   73.5618 C   0  0  0  0  0  0
   66.5387   33.1950   72.8758 C   0  0  0  0  0  0
   67.6982   33.0754   73.8116 C   0  0  0  0  0  0
   67.4998   33.0891   75.2086 C   0  0  0  0  0  0
   68.5776   32.9281   76.0799 C   0  0  0  0  0  0
   69.8608   32.7551   75.5998 C   0  0  0  0  0  0
   70.0725   32.7405   74.2417 C   0  0  0  0  0  0
   68.9995   32.8989   73.3574 C   0  0  0  0  0  0
   66.6684   33.3741   71.5283 C   0  0  0  0  0  0
   66.3429   32.3143   70.5044 C   0  0  0  0  0  0
   67.0414   31.0675   70.4620 C   0  0  0  0  0  0
   66.7547   30.1216   69.4674 C   0  0  0  0  0  0
   65.7678   30.4122   68.5065 C   0  0  0  0  0  0
   65.5213   29.4855   67.5380 O   0  0  0  0  0  0
   65.0687   31.6402   68.5404 C   0  0  0  0  0  0
   65.3686   32.5644   69.5333 C   0  0  0  0  0  0
   67.1589   34.6256   70.9431 C   0  0  0  0  0  0
   66.8267   35.8649   71.4849 C   0  0  0  0  0  0
   67.2944   37.0403   70.9682 C   0  0  0  0  0  0
   68.1334   37.0140   69.8658 C   0  0  0  0  0  0
   68.6738   38.1383   69.3104 O   0  0  0  0  0  0
   70.0448   38.4528   69.5347 C   0  0  0  0  0  0
   70.3571   39.6456   68.6721 C   0  0  0  0  0  0
   71.1374   40.6519   69.3384 N   0  0  0  0  0  0
   72.5368   40.2466   69.4786 C   0  0  0  0  0  0
   71.0984   41.8970   68.5629 C   0  0  0  0  0  0
   68.4877   35.7813   69.2906 C   0  0  0  0  0  0
   68.0061   34.6200   69.8268 C   0  0  0  0  0  0
   65.3373   28.5978   67.7749 H   0  0  0  0  0  0
  1  2  1  0  0  0
  2  3  1  0  0  0
  3  4  1  0  0  0
  3 10  1  0  0  0
  4  5  2  0  0  0
  4  9  1  0  0  0
  5  6  1  0  0  0
  6  7  2  0  0  0
  7  8  1  0  0  0
  8  9  2  0  0  0
 10 11  1  0  0  0
 10 18  1  0  0  0
 11 12  2  0  0  0
 11 17  1  0  0  0
 12 13  1  0  0  0
 13 14  2  0  0  0
 14 15  1  0  0  0
 14 16  1  0  0  0
 15 30  1  0  0  0
 16 17  2  0  0  0
 18 19  2  0  0  0
 18 29  1  0  0  0
 19 20  1  0  0  0
 20 21  2  0  0  0
 21 22  1  0  0  0
 21 28  1  0  0  0
 22 23  1  0  0  0
 23 24  1  0  0  0
 24 25  1  0  0  0
 25 26  1  0  0  0
 25 27  1  0  0  0
 28 29  2  0  0  0
M  END
>  <CHROM.0>
-58.83058490,-57.85195935,173.12836512,-50.99074767

>  <CHROM.1>
-84.65634884,-9.37606555,-70.83464651,-61.92032387,-37.19670202,52.36913892
104.39111084,173.77845765,136.41567991,74.69963303,67.87563715,34.57331174
71.03722040,-2.53591548,-1.00732887,-1.15358495

>  <FORMUL>
      OHT    C26 H29 N1 O2

>  <HET>
 OHT  A 600      29

>  <HETNAM>
     OHT 4-HYDROXYTAMOXIFEN

>  <Name>
OHT.pdb

>  <RI>
2.13257e+07

>  <Rbt.Current_Directory>
/home/malgorzata/Desktop/rDOCK_IFD/Wyniki/5_estrogen_receptor

>  <Rbt.Executable>
rbdock ($Id: //depot/dev/client3/rdock/2013.1/src/exe/rbdock.cxx#4 $)

>  <Rbt.Library>
libRbt.so (2013.1, Build901 2013/11/27)

>  <Rbt.Parameter_File>
/home/malgorzata/Desktop/rDock_2013.1_src/data/scripts/soft_docking.prm

>  <Rbt.Receptor>
cavity.prm

>  <SCORE>
-76.1555

>  <SCORE.INTER>
-19.3479

>  <SCORE.INTER.CONST>
1

>  <SCORE.INTER.POLAR>
-1.1924

>  <SCORE.INTER.REPUL>
0

>  <SCORE.INTER.ROT>
9

>  <SCORE.INTER.VDW>
-29.6938

>  <SCORE.INTER.norm>
-0.667169

>  <SCORE.INTRA>
-0.205768

>  <SCORE.INTRA.DIHEDRAL>
5.34405

>  <SCORE.INTRA.DIHEDRAL.0>
14.7815

>  <SCORE.INTRA.POLAR>
0

>  <SCORE.INTRA.POLAR.0>
0

>  <SCORE.INTRA.REPUL>
0

>  <SCORE.INTRA.REPUL.0>
0

>  <SCORE.INTRA.VDW>
-1.27458

>  <SCORE.INTRA.VDW.0>
-0.0652974

>  <SCORE.INTRA.norm>
-0.00709547

>  <SCORE.RESTR>
0.572743

>  <SCORE.RESTR.CAVITY>
0.572743

>  <SCORE.RESTR.norm>
0.0197497

>  <SCORE.SYSTEM>
-57.1745

>  <SCORE.SYSTEM.CONST>
0

>  <SCORE.SYSTEM.DIHEDRAL>
3.84744

>  <SCORE.SYSTEM.POLAR>
-0.29588

>  <SCORE.SYSTEM.REPUL>
0.0193743

>  <SCORE.SYSTEM.VDW>
-58.1891

>  <SCORE.SYSTEM.norm>
-1.97154

>  <SCORE.heavy>
29

>  <SCORE.norm>
-2.62605

$$$$
OHT.pdb
  rDOCK(R)          3D
libRbt.so/2013.1/901 2013/11/27
 30 32  0  0  0  0  0  0  0  0999 V2000
   67.9371   31.3322   68.6018 C   0  0  0  0  0  0
   68.5741   32.3166   69.5439 C   0  0  0  0  0  0
   67.6509   32.7001   70.6817 C   0  0  0  0  0  0
   66.6226   31.6615   70.9958 C   0  0  0  0  0  0
   66.6199   31.0063   72.2455 C   0  0  0  0  0  0
   65.6303   30.0729   72.5551 C   0  0  0  0  0  0
   64.6342   29.7652   71.6494 C   0  0  0  0  0  0
   64.6223   30.3930   70.4266 C   0  0  0  0  0  0
   65.6082   31.3326   70.1049 C   0  0  0  0  0  0
   67.7579   33.8861   71.3499 C   0  0  0  0  0  0
   67.5442   34.0357   72.8363 C   0  0  0  0  0  0
   66.8111   35.1334   73.3856 C   0  0  0  0  0  0
   66.6723   35.2765   74.7737 C   0  0  0  0  0  0
   67.2640   34.3245   75.6253 C   0  0  0  0  0  0
   67.1322   34.4961   76.9709 O   0  0  0  0  0  0
   67.9884   33.2335   75.0934 C   0  0  0  0  0  0
   68.1154   33.1107   73.7155 C   0  0  0  0  0  0
   68.0788   35.1462   70.6727 C   0  0  0  0  0  0
   67.2768   35.6522   69.6526 C   0  0  0  0  0  0
   67.5464   36.8368   69.0271 C   0  0  0  0  0  0
   68.6540   37.5745   69.4130 C   0  0  0  0  0  0
   68.9744   38.7840   68.8661 O   0  0  0  0  0  0
   68.6865   39.9839   69.5777 C   0  0  0  0  0  0
   68.3108   41.0134   68.5465 C   0  0  0  0  0  0
   67.9774   42.2952   69.1048 N   0  0  0  0  0  0
   69.0076   43.2945   68.8183 C   0  0  0  0  0  0
   66.7120   42.7667   68.5305 C   0  0  0  0  0  0
   69.4879   37.0932   70.4371 C   0  0  0  0  0  0
   69.1960   35.9053   71.0466 C   0  0  0  0  0  0
   67.4719   33.8522   77.5609 H   0  0  0  0  0  0
  1  2  1  0  0  0
  2  3  1  0  0  0
  3  4  1  0  0  0
  3 10  1  0  0  0
  4  5  2  0  0  0
  4  9  1  0  0  0
  5  6  1  0  0  0
  6  7  2  0  0  0
  7  8  1  0  0  0
  8  9  2  0  0  0
 10 11  1  0  0  0
 10 18  1  0  0  0
 11 12  2  0  0  0
 11 17  1  0  0  0
 12 13  1  0  0  0
 13 14  2  0  0  0
 14 15  1  0  0  0
 14 16  1  0  0  0
 15 30  1  0  0  0
 16 17  2  0  0  0
 18 19  2  0  0  0
 18 29  1  0  0  0
 19 20  1  0  0  0
 20 21  2  0  0  0
 21 22  1  0  0  0
 21 28  1  0  0  0
 22 23  1  0  0  0
 23 24  1  0  0  0
 24 25  1  0  0  0
 25 26  1  0  0  0
 25 27  1  0  0  0
 28 29  2  0  0  0
M  END
>  <CHROM.0>
82.03069535,-59.16065439,-47.25802506,14.44620825

>  <CHROM.1>
25.38221695,115.91417449,-141.96747606,-137.59282534,58.98648050,176.40692131
102.17143849,-144.91722112,179.57853966,108.99835879,67.50824251,35.31336723
71.15490662,2.83999525,1.38315781,1.53588740

>  <FORMUL>
      OHT    C26 H29 N1 O2

>  <HET>
 OHT  A 600      29

>  <HETNAM>
     OHT 4-HYDROXYTAMOXIFEN

>  <Name>
OHT.pdb

>  <RI>
2.13257e+07

>  <Rbt.Current_Directory>
/home/malgorzata/Desktop/rDOCK_IFD/Wyniki/5_estrogen_receptor

>  <Rbt.Executable>
rbdock ($Id: //depot/dev/client3/rdock/2013.1/src/exe/rbdock.cxx#4 $)

>  <Rbt.Library>
libRbt.so (2013.1, Build901 2013/11/27)

>  <Rbt.Parameter_File>
/home/malgorzata/Desktop/rDock_2013.1_src/data/scripts/soft_docking.prm

>  <Rbt.Receptor>
cavity.prm

>  <SCORE>
-82.2513

>  <SCORE.INTER>
-24.1581

>  <SCORE.INTER.CONST>
1

>  <SCORE.INTER.POLAR>
-0.766412

>  <SCORE.INTER.REPUL>
0.443557

>  <SCORE.INTER.ROT>
9

>  <SCORE.INTER.VDW>
-38.1701

>  <SCORE.INTER.norm>
-0.833037

>  <SCORE.INTRA>
3.11152

>  <SCORE.INTRA.DIHEDRAL>
3.8709

>  <SCORE.INTRA.DIHEDRAL.0>
14.7815

>  <SCORE.INTRA.POLAR>
0

>  <SCORE.INTRA.POLAR.0>
0

>  <SCORE.INTRA.REPUL>
0

>  <SCORE.INTRA.REPUL.0>
0

>  <SCORE.INTRA.VDW>
2.33734

>  <SCORE.INTRA.VDW.0>
-0.0652974

>  <SCORE.INTRA.norm>
0.107294

>  <SCORE.RESTR>
0

>  <SCORE.RESTR.CAVITY>
0

>  <SCORE.RESTR.norm>
0

>  <SCORE.SYSTEM>
-61.2047

>  <SCORE.SYSTEM.CONST>
0

>  <SCORE.SYSTEM.DIHEDRAL>
1.26093

>  <SCORE.SYSTEM.POLAR>
-0.273617

>  <SCORE.SYSTEM.REPUL>
0.0766517

>  <SCORE.SYSTEM.VDW>
-61.2882

>  <SCORE.SYSTEM.norm>
-2.11051

>  <SCORE.heavy>
29

>  <SCORE.norm>
-2.83625

$$$$
OHT.pdb
  rDOCK(R)          3D
libRbt.so/2013.1/901 2013/11/27
 30 32  0  0  0  0  0  0  0  0999 V2000
   67.9802   37.6189   81.5446 C   0  0  0  0  0  0
   69.2163   37.2639   80.7647 C   0  0  0  0  0  0
   68.9118   36.9737   79.3097 C   0  0  0  0  0  0
   68.5951   38.1951   78.5081 C   0  0  0  0  0  0
   67.3979   38.9091   78.7271 C   0  0  0  0  0  0
   67.1270   40.0763   78.0123 C   0  0  0  0  0  0
   68.0179   40.5589   77.0740 C   0  0  0  0  0  0
   69.1885   39.8751   76.8468 C   0  0  0  0  0  0
   69.4728   38.7043   77.5588 C   0  0  0  0  0  0
   68.9281   35.7107   78.7909 C   0  0  0  0  0  0
   68.5332   34.4782   79.5671 C   0  0  0  0  0  0
   67.3636   33.7239   79.2395 C   0  0  0  0  0  0
   66.9911   32.6129   80.0099 C   0  0  0  0  0  0
   67.7834   32.2454   81.1139 C   0  0  0  0  0  0
   67.3897   31.1743   81.8592 O   0  0  0  0  0  0
   68.9434   32.9819   81.4454 C   0  0  0  0  0  0
   69.2943   34.0799   80.6702 C   0  0  0  0  0  0
   69.3527   35.4285   77.4164 C   0  0  0  0  0  0
   70.4200   36.1032   76.8284 C   0  0  0  0  0  0
   70.8456   35.8363   75.5577 C   0  0  0  0  0  0
   70.2029   34.8589   74.8150 C   0  0  0  0  0  0
   70.5871   34.5049   73.5534 O   0  0  0  0  0  0
   71.6380   35.2151   72.9053 C   0  0  0  0  0  0
   71.1047   35.6382   71.5633 C   0  0  0  0  0  0
   70.1008   36.6640   71.6380 N   0  0  0  0  0  0
   70.4583   37.8306   70.8297 C   0  0  0  0  0  0
   68.8239   36.1386   71.1413 C   0  0  0  0  0  0
   69.1198   34.1595   75.3750 C   0  0  0  0  0  0
   68.7138   34.4458   76.6482 C   0  0  0  0  0  0
   66.4797   31.0325   82.0316 H   0  0  0  0  0  0
  1  2  1  0  0  0
  2  3  1  0  0  0
  3  4  1  0  0  0
  3 10  1  0  0  0
  4  5  2  0  0  0
  4  9  1  0  0  0
  5  6  1  0  0  0
  6  7  2  0  0  0
  7  8  1  0  0  0
  8  9  2  0  0  0
 10 11  1  0  0  0
 10 18  1  0  0  0
 11 12  2  0  0  0
 11 17  1  0  0  0
 12 13  1  0  0  0
 13 14  2  0  0  0
 14 15  1  0  0  0
 14 16  1  0  0  0
 15 30  1  0  0  0
 16 17  2  0  0  0
 18 19  2  0  0  0
 18 29  1  0  0  0
 19 20  1  0  0  0
 20 21  2  0  0  0
 21 22  1  0  0  0
 21 28  1  0  0  0
 22 23  1  0  0  0
 23 24  1  0  0  0
 24 25  1  0  0  0
 25 26  1  0  0  0
 25 27  1  0  0  0
 28 29  2  0  0  0
M  END
>  <CHROM.0>
112.85925974,-60.60818071,50.20044818,-157.16789597

>  <CHROM.1>
73.51817696,-69.17657843,33.11845432,112.64112118,38.66433507,-38.40030022
-4.39032574,-127.81897122,70.19564037,124.46833861,69.06186655,35.90508979
77.15098624,2.64419115,-1.28476529,2.88801453

>  <FORMUL>
      OHT    C26 H29 N1 O2

>  <HET>
 OHT  A 600      29

>  <HETNAM>
     OHT 4-HYDROXYTAMOXIFEN

>  <Name>
OHT.pdb

>  <RI>
2.13257e+07

>  <Rbt.Current_Directory>
/home/malgorzata/Desktop/rDOCK_IFD/Wyniki/5_estrogen_receptor

>  <Rbt.Executable>
rbdock ($Id: //depot/dev/client3/rdock/2013.1/src/exe/rbdock.cxx#4 $)

>  <Rbt.Library>
libRbt.so (2013.1, Build901 2013/11/27)

>  <Rbt.Parameter_File>
/home/malgorzata/Desktop/rDock_2013.1_src/data/scripts/soft_docking.prm

>  <Rbt.Receptor>
cavity.prm

>  <SCORE>
-74.1179

>  <SCORE.INTER>
-13.011

>  <SCORE.INTER.CONST>
1

>  <SCORE.INTER.POLAR>
0

>  <SCORE.INTER.REPUL>
0.0562766

>  <SCORE.INTER.ROT>
9

>  <SCORE.INTER.VDW>
-27.6924

>  <SCORE.INTER.norm>
-0.448655

>  <SCORE.INTRA>
-0.0189492

>  <SCORE.INTRA.DIHEDRAL>
5.16595

>  <SCORE.INTRA.DIHEDRAL.0>
14.7815

>  <SCORE.INTRA.POLAR>
0

>  <SCORE.INTRA.POLAR.0>
0

>  <SCORE.INTRA.REPUL>
0

>  <SCORE.INTRA.REPUL.0>
0

>  <SCORE.INTRA.VDW>
-1.05214

>  <SCORE.INTRA.VDW.0>
-0.0652974

>  <SCORE.INTRA.norm>
-0.000653419

>  <SCORE.RESTR>
0.168787

>  <SCORE.RESTR.CAVITY>
0.168787

>  <SCORE.RESTR.norm>
0.00582025

>  <SCORE.SYSTEM>
-61.2568

>  <SCORE.SYSTEM.CONST>
0

>  <SCORE.SYSTEM.DIHEDRAL>
1.66044

>  <SCORE.SYSTEM.POLAR>
-0.186144

>  <SCORE.SYSTEM.REPUL>
0.130667

>  <SCORE.SYSTEM.VDW>
-62.1074

>  <SCORE.SYSTEM.norm>
-2.1123

>  <SCORE.heavy>
29

>  <SCORE.norm>
-2.55579

$$$$
OHT.pdb
  rDOCK(R)          3D
libRbt.so/2013.1/901 2013/11/27
 30 32  0  0  0  0  0  0  0  0999 V2000
   71.2439   32.4090   75.0762 C   0  0  0  0  0  0
   71.0313   33.6190   75.9438 C   0  0  0  0  0  0
   69.6595   33.6295   76.5860 C   0  0  0  0  0  0
   69.4373   32.5038   77.5440 C   0  0  0  0  0  0
   68.1721   32.3008   78.1349 C   0  0  0  0  0  0
   67.9536   31.2208   78.9907 C   0  0  0  0  0  0
   68.9663   30.3284   79.2828 C   0  0  0  0  0  0
   70.2055   30.5117   78.7171 C   0  0  0  0  0  0
   70.4367   31.5900   77.8555 C   0  0  0  0  0  0
   68.7226   34.5830   76.3074 C   0  0  0  0  0  0
   68.3452   35.6932   77.2573 C   0  0  0  0  0  0
   68.3791   35.5156   78.6756 C   0  0  0  0  0  0
   67.9730   36.5470   79.5346 C   0  0  0  0  0  0
   67.5299   37.7648   78.9848 C   0  0  0  0  0  0
   67.1215   38.7449   79.8394 O   0  0  0  0  0  0
   67.4950   37.9528   77.5843 C   0  0  0  0  0  0
   67.9003   36.9180   76.7507 C   0  0  0  0  0  0
   67.9732   34.6074   75.0476 C   0  0  0  0  0  0
   66.9233   33.7250   74.8048 C   0  0  0  0  0  0
   66.1978   33.7493   73.6472 C   0  0  0  0  0  0
   66.5046   34.6827   72.6701 C   0  0  0  0  0  0
   65.8074   34.7991   71.5019 O   0  0  0  0  0  0
   64.6786   33.9640   71.2621 C   0  0  0  0  0  0
   65.1807   32.7791   70.4823 C   0  0  0  0  0  0
   66.6136   32.6708   70.4549 N   0  0  0  0  0  0
   67.0748   31.4343   71.0878 C   0  0  0  0  0  0
   67.0796   32.6725   69.0634 C   0  0  0  0  0  0
   67.5600   35.5874   72.8794 C   0  0  0  0  0  0
   68.2701   35.5419   74.0463 C   0  0  0  0  0  0
   66.3369   39.2250   79.6610 H   0  0  0  0  0  0
  1  2  1  0  0  0
  2  3  1  0  0  0
  3  4  1  0  0  0
  3 10  1  0  0  0
  4  5  2  0  0  0
  4  9  1  0  0  0
  5  6  1  0  0  0
  6  7  2  0  0  0
  7  8  1  0  0  0
  8  9  2  0  0  0
 10 11  1  0  0  0
 10 18  1  0  0  0
 11 12  2  0  0  0
 11 17  1  0  0  0
 12 13  1  0  0  0
 13 14  2  0  0  0
 14 15  1  0  0  0
 14 16  1  0  0  0
 15 30  1  0  0  0
 16 17  2  0  0  0
 18 19  2  0  0  0
 18 29  1  0  0  0
 19 20  1  0  0  0
 20 21  2  0  0  0
 21 22  1  0  0  0
 21 28  1  0  0  0
 22 23  1  0  0  0
 23 24  1  0  0  0
 24 25  1  0  0  0
 25 26  1  0  0  0
 25 27  1  0  0  0
 28 29  2  0  0  0
M  END
>  <CHROM.0>
89.01552749,-61.64651349,-58.43948062,161.20516616

>  <CHROM.1>
64.36901335,-174.27000467,-106.43444408,-31.95496575,76.17146888,-135.58196847
2.04672399,-94.42255234,12.52005438,117.86766474,67.91615863,34.07473066
75.42622255,-0.96001160,1.06316751,-2.31276352

>  <FORMUL>
      OHT    C26 H29 N1 O2

>  <HET>
 OHT  A 600      29

>  <HETNAM>
     OHT 4-HYDROXYTAMOXIFEN

>  <Name>
OHT.pdb

>  <RI>
2.13257e+07

>  <Rbt.Current_Directory>
/home/malgorzata/Desktop/rDOCK_IFD/Wyniki/5_estrogen_receptor

>  <Rbt.Executable>
rbdock ($Id: //depot/dev/client3/rdock/2013.1/src/exe/rbdock.cxx#4 $)

>  <Rbt.Library>
libRbt.so (2013.1, Build901 2013/11/27)

>  <Rbt.Parameter_File>
/home/malgorzata/Desktop/rDock_2013.1_src/data/scripts/soft_docking.prm

>  <Rbt.Receptor>
cavity.prm

>  <SCORE>
-66.7761

>  <SCORE.INTER>
-7.79136

>  <SCORE.INTER.CONST>
1

>  <SCORE.INTER.POLAR>
0

>  <SCORE.INTER.REPUL>
0.012149

>  <SCORE.INTER.ROT>
9

>  <SCORE.INTER.VDW>
-22.2521

>  <SCORE.INTER.norm>
-0.268668

>  <SCORE.INTRA>
1.73404

>  <SCORE.INTRA.DIHEDRAL>
8.27595

>  <SCORE.INTRA.DIHEDRAL.0>
14.7815

>  <SCORE.INTRA.POLAR>
0

>  <SCORE.INTRA.POLAR.0>
0

>  <SCORE.INTRA.REPUL>
0

>  <SCORE.INTRA.REPUL.0>
0

>  <SCORE.INTRA.VDW>
0.078851

>  <SCORE.INTRA.VDW.0>
-0.0652974

>  <SCORE.INTRA.norm>
0.0597945

>  <SCORE.RESTR>
0.121991

>  <SCORE.RESTR.CAVITY>
0.121991

>  <SCORE.RESTR.norm>
0.00420658

>  <SCORE.SYSTEM>
-60.8407

>  <SCORE.SYSTEM.CONST>
0

>  <SCORE.SYSTEM.DIHEDRAL>
1.46474

>  <SCORE.SYSTEM.POLAR>
-0.118001

>  <SCORE.SYSTEM.REPUL>
0.217156

>  <SCORE.SYSTEM.VDW>
-62.2577

>  <SCORE.SYSTEM.norm>
-2.09796

>  <SCORE.heavy>
29

>  <SCORE.norm>
-2.30262

$$$$
