@<TRIPOS>MOLECULE
pose7.pdb
 60 62 0 0 0
SMALL
GASTEIGER

@<TRIPOS>ATOM
      1  C1        67.9370   31.3320   68.6020 C.3     1  LIG1       -0.0647
      2  C2        68.5740   32.3170   69.5440 C.3     1  LIG1       -0.0482
      3  C3        67.6510   32.7000   70.6820 C.3     1  LIG1       -0.0053
      4  C4        66.6230   31.6620   70.9960 C.ar    1  LIG1       -0.0434
      5  C5        66.6200   31.0060   72.2460 C.ar    1  LIG1       -0.0583
      6  C6        65.6300   30.0730   72.5550 C.ar    1  LIG1       -0.0615
      7  C7        64.6340   29.7650   71.6490 C.ar    1  LIG1       -0.0617
      8  C8        64.6220   30.3930   70.4270 C.ar    1  LIG1       -0.0615
      9  C9        65.6080   31.3330   70.1050 C.ar    1  LIG1       -0.0583
     10  C10       67.7580   33.8860   71.3500 C.3     1  LIG1        0.0160
     11  C11       67.5440   34.0360   72.8360 C.ar    1  LIG1       -0.0392
     12  C12       66.8110   35.1330   73.3860 C.ar    1  LIG1       -0.0545
     13  C13       66.6720   35.2760   74.7740 C.ar    1  LIG1       -0.0199
     14  C14       67.2640   34.3250   75.6250 C.ar    1  LIG1        0.1169
     15  O1        67.1320   34.4960   76.9710 O.3     1  LIG1       -0.5068
     16  C15       67.9880   33.2330   75.0930 C.ar    1  LIG1       -0.0199
     17  C16       68.1150   33.1110   73.7160 C.ar    1  LIG1       -0.0545
     18  C17       68.0790   35.1460   70.6730 C.ar    1  LIG1       -0.0392
     19  C18       67.2770   35.6520   69.6530 C.ar    1  LIG1       -0.0545
     20  C19       67.5460   36.8370   69.0270 C.ar    1  LIG1       -0.0197
     21  C20       68.6540   37.5750   69.4130 C.ar    1  LIG1        0.1206
     22  O2        68.9740   38.7840   68.8660 O.3     1  LIG1       -0.4907
     23  C21       68.6860   39.9840   69.5780 C.3     1  LIG1        0.1022
     24  C22       68.3110   41.0130   68.5460 C.3     1  LIG1        0.0325
     25  N1        67.9770   42.2950   69.1050 N.3     1  LIG1       -0.3051
     26  C23       69.0080   43.2940   68.8180 C.3     1  LIG1       -0.0129
     27  C24       66.7120   42.7670   68.5310 C.3     1  LIG1       -0.0129
     28  C25       69.4880   37.0930   70.4370 C.ar    1  LIG1       -0.0197
     29  C26       69.1960   35.9050   71.0470 C.ar    1  LIG1       -0.0545
     30  H1        67.4720   33.8520   77.5610 H       1  LIG1        0.2921
     31 H          68.6245   31.0926   67.8178 H       1  LIG1        0.0230
     32 H          67.0519   31.7618   68.1815 H       1  LIG1        0.0230
     33 H          67.6816   30.4411   69.1367 H       1  LIG1        0.0230
     34 H          68.8313   33.1999   68.9970 H       1  LIG1        0.0269
     35 H          69.4412   31.8538   69.9663 H       1  LIG1        0.0269
     36 H          67.6527   33.5933   71.2709 H       1  LIG1        0.0358
     37 H          67.3564   31.2184   72.9371 H       1  LIG1        0.0620
     38 H          65.6420   29.6056   73.4750 H       1  LIG1        0.0618
     39 H          63.9077   29.0716   71.8870 H       1  LIG1        0.0618
     40 H          63.8821   30.1705   69.7429 H       1  LIG1        0.0618
     41 H          65.5807   31.7938   69.1820 H       1  LIG1        0.0620
     42 H          67.7716   32.8841   70.9747 H       1  LIG1        0.0403
     43 H          66.3798   35.8267   72.7553 H       1  LIG1        0.0622
     44 H          66.1417   36.0695   75.1666 H       1  LIG1        0.0654
     45 H          68.4168   32.5352   75.7208 H       1  LIG1        0.0654
     46 H          68.6462   32.3146   73.3305 H       1  LIG1        0.0622
     47 H          66.4483   35.1119   69.3587 H       1  LIG1        0.0622
     48 H          66.9295   37.1792   68.2735 H       1  LIG1        0.0654
     49 H          69.5479   40.3055   70.1246 H       1  LIG1        0.0709
     50 H          67.8943   39.8357   70.2824 H       1  LIG1        0.0709
     51 H          67.4648   40.6514   68.0000 H       1  LIG1        0.0460
     52 H          69.1677   41.1571   67.9214 H       1  LIG1        0.0460
     53 H          69.9419   42.9707   69.2281 H       1  LIG1        0.0391
     54 H          68.7304   44.2294   69.2572 H       1  LIG1        0.0391
     55 H          69.1052   43.4121   67.7590 H       1  LIG1        0.0391
     56 H          65.9416   42.0513   68.7287 H       1  LIG1        0.0391
     57 H          66.8233   42.8883   67.4738 H       1  LIG1        0.0391
     58 H          66.4485   43.7056   68.9719 H       1  LIG1        0.0391
     59 H          70.3176   37.6340   70.7271 H       1  LIG1        0.0654
     60 H          69.8118   35.5595   71.7996 H       1  LIG1        0.0622
@<TRIPOS>BOND
     1     1     2    1
     2     2     3    1
     3     3     4    1
     4     3    10    1
     5     4     5   ar
     6     4     9   ar
     7     5     6   ar
     8     6     7   ar
     9     7     8   ar
    10     8     9   ar
    11    10    11    1
    12    10    18    1
    13    11    12   ar
    14    11    17   ar
    15    12    13   ar
    16    13    14   ar
    17    14    15    1
    18    14    16   ar
    19    15    30    1
    20    16    17   ar
    21    18    19   ar
    22    18    29   ar
    23    19    20   ar
    24    20    21   ar
    25    21    22    1
    26    21    28   ar
    27    22    23    1
    28    23    24    1
    29    24    25    1
    30    25    26    1
    31    25    27    1
    32    28    29   ar
    33     1    31    1
    34     1    32    1
    35     1    33    1
    36     2    34    1
    37     2    35    1
    38     3    36    1
    39     5    37    1
    40     6    38    1
    41     7    39    1
    42     8    40    1
    43     9    41    1
    44    10    42    1
    45    12    43    1
    46    13    44    1
    47    16    45    1
    48    17    46    1
    49    19    47    1
    50    20    48    1
    51    23    49    1
    52    23    50    1
    53    24    51    1
    54    24    52    1
    55    26    53    1
    56    26    54    1
    57    26    55    1
    58    27    56    1
    59    27    57    1
    60    27    58    1
    61    28    59    1
    62    29    60    1
