@<TRIPOS>MOLECULE
pose4.pdb
 58 60 0 0 0
SMALL
GASTEIGER

@<TRIPOS>ATOM
      1  C1        69.4770   30.4860   71.8070 C.3     1  LIG1       -0.0612
      2  C2        68.0260   30.8810   71.7820 C.3     1  LIG1       -0.0294
      3  C3        67.7690   32.0570   70.8640 C.2     1  LIG1       -0.0322
      4  C4        67.5220   31.6660   69.4420 C.ar    1  LIG1       -0.0213
      5  C5        67.9390   30.4080   68.9590 C.ar    1  LIG1       -0.0543
      6  C6        67.6640   30.0250   67.6460 C.ar    1  LIG1       -0.0612
      7  C7        66.9820   30.8650   66.7880 C.ar    1  LIG1       -0.0617
      8  C8        66.5690   32.0950   67.2420 C.ar    1  LIG1       -0.0612
      9  C9        66.8370   32.4900   68.5570 C.ar    1  LIG1       -0.0543
     10  C10       67.7660   33.3500   71.3050 C.2     1  LIG1       -0.0070
     11  C11       67.8110   34.5500   70.3910 C.ar    1  LIG1       -0.0168
     12  C12       68.7530   34.6470   69.3200 C.ar    1  LIG1       -0.0506
     13  C13       68.8080   35.7970   68.5190 C.ar    1  LIG1       -0.0196
     14  C14       67.9220   36.8590   68.7790 C.ar    1  LIG1        0.1169
     15  O1        68.0080   37.9730   68.0000 O.3     1  LIG1       -0.5068
     16  C15       66.9840   36.7730   69.8330 C.ar    1  LIG1       -0.0196
     17  C16       66.9470   35.6260   70.6160 C.ar    1  LIG1       -0.0506
     18  C17       67.7360   33.6960   72.7290 C.ar    1  LIG1       -0.0168
     19  C18       66.7180   33.2490   73.5680 C.ar    1  LIG1       -0.0506
     20  C19       66.6860   33.5420   74.9020 C.ar    1  LIG1       -0.0194
     21  C20       67.6990   34.3080   75.4560 C.ar    1  LIG1        0.1206
     22  O2        67.7630   34.6150   76.7850 O.3     1  LIG1       -0.4907
     23  C21       68.2500   35.8880   77.1980 C.3     1  LIG1        0.1022
     24  C22       69.7460   35.7620   77.2960 C.3     1  LIG1        0.0325
     25  N1        70.2810   36.1960   78.5570 N.3     1  LIG1       -0.3051
     26  C23       70.7350   35.0670   79.3700 C.3     1  LIG1       -0.0129
     27  C24       71.4280   37.0820   78.3260 C.3     1  LIG1       -0.0129
     28  C25       68.7410   34.7790   74.6390 C.ar    1  LIG1       -0.0194
     29  C26       68.7490   34.4730   73.3070 C.ar    1  LIG1       -0.0506
     30  H1        68.0190   38.8220   68.3960 H       1  LIG1        0.2921
     31 H          69.6088   29.6540   72.4668 H       1  LIG1        0.0233
     32 H          70.0653   31.3109   72.1511 H       1  LIG1        0.0233
     33 H          69.7891   30.2121   70.8209 H       1  LIG1        0.0233
     34 H          67.7238   31.1456   72.7737 H       1  LIG1        0.0311
     35 H          67.4651   30.0478   71.4131 H       1  LIG1        0.0311
     36 H          68.4521   29.7653   69.5824 H       1  LIG1        0.0624
     37 H          67.9750   29.0998   67.3108 H       1  LIG1        0.0618
     38 H          66.7848   30.5730   65.8180 H       1  LIG1        0.0618
     39 H          66.0584   32.7306   66.6093 H       1  LIG1        0.0618
     40 H          66.5178   33.4173   68.8782 H       1  LIG1        0.0624
     41 H          69.3986   33.8635   69.1345 H       1  LIG1        0.0625
     42 H          69.4904   35.8636   67.7477 H       1  LIG1        0.0654
     43 H          66.3343   37.5531   70.0187 H       1  LIG1        0.0654
     44 H          66.2622   35.5665   71.3857 H       1  LIG1        0.0625
     45 H          65.9597   32.6752   73.1670 H       1  LIG1        0.0625
     46 H          65.9136   33.1956   75.4923 H       1  LIG1        0.0654
     47 H          67.8380   36.1502   78.1500 H       1  LIG1        0.0709
     48 H          67.9708   36.6528   76.5037 H       1  LIG1        0.0709
     49 H          70.1863   36.3536   76.5207 H       1  LIG1        0.0460
     50 H          69.9792   34.7223   77.1987 H       1  LIG1        0.0460
     51 H          69.9139   34.4055   79.5520 H       1  LIG1        0.0391
     52 H          71.1149   35.4289   80.3025 H       1  LIG1        0.0391
     53 H          71.5082   34.5411   78.8499 H       1  LIG1        0.0391
     54 H          71.1198   37.9170   77.7322 H       1  LIG1        0.0391
     55 H          72.1969   36.5435   77.8124 H       1  LIG1        0.0391
     56 H          71.8036   37.4314   79.2650 H       1  LIG1        0.0391
     57 H          69.4970   35.3536   75.0432 H       1  LIG1        0.0654
     58 H          69.5180   34.8218   72.7137 H       1  LIG1        0.0625
@<TRIPOS>BOND
     1     1     2    1
     2     2     3    1
     3     3     4    1
     4     3    10    2
     5     4     5   ar
     6     4     9   ar
     7     5     6   ar
     8     6     7   ar
     9     7     8   ar
    10     8     9   ar
    11    10    11    1
    12    10    18    1
    13    11    12   ar
    14    11    17   ar
    15    12    13   ar
    16    13    14   ar
    17    14    15    1
    18    14    16   ar
    19    15    30    1
    20    16    17   ar
    21    18    19   ar
    22    18    29   ar
    23    19    20   ar
    24    20    21   ar
    25    21    22    1
    26    21    28   ar
    27    22    23    1
    28    23    24    1
    29    24    25    1
    30    25    26    1
    31    25    27    1
    32    28    29   ar
    33     1    31    1
    34     1    32    1
    35     1    33    1
    36     2    34    1
    37     2    35    1
    38     5    36    1
    39     6    37    1
    40     7    38    1
    41     8    39    1
    42     9    40    1
    43    12    41    1
    44    13    42    1
    45    16    43    1
    46    17    44    1
    47    19    45    1
    48    20    46    1
    49    23    47    1
    50    23    48    1
    51    24    49    1
    52    24    50    1
    53    26    51    1
    54    26    52    1
    55    26    53    1
    56    27    54    1
    57    27    55    1
    58    27    56    1
    59    28    57    1
    60    29    58    1
