@<TRIPOS>MOLECULE
pose8.pdb
 60 62 0 0 0
SMALL
GASTEIGER

@<TRIPOS>ATOM
      1  C1        67.9800   37.6190   81.5450 C.3     1  LIG1       -0.0647
      2  C2        69.2160   37.2640   80.7650 C.3     1  LIG1       -0.0482
      3  C3        68.9120   36.9740   79.3100 C.3     1  LIG1       -0.0053
      4  C4        68.5950   38.1950   78.5080 C.ar    1  LIG1       -0.0434
      5  C5        67.3980   38.9090   78.7270 C.ar    1  LIG1       -0.0583
      6  C6        67.1270   40.0760   78.0120 C.ar    1  LIG1       -0.0615
      7  C7        68.0180   40.5590   77.0740 C.ar    1  LIG1       -0.0617
      8  C8        69.1890   39.8750   76.8470 C.ar    1  LIG1       -0.0615
      9  C9        69.4730   38.7040   77.5590 C.ar    1  LIG1       -0.0583
     10  C10       68.9280   35.7110   78.7910 C.3     1  LIG1        0.0160
     11  C11       68.5330   34.4780   79.5670 C.ar    1  LIG1       -0.0392
     12  C12       67.3640   33.7240   79.2400 C.ar    1  LIG1       -0.0545
     13  C13       66.9910   32.6130   80.0100 C.ar    1  LIG1       -0.0199
     14  C14       67.7830   32.2450   81.1140 C.ar    1  LIG1        0.1169
     15  O1        67.3900   31.1740   81.8590 O.3     1  LIG1       -0.5068
     16  C15       68.9430   32.9820   81.4450 C.ar    1  LIG1       -0.0199
     17  C16       69.2940   34.0800   80.6700 C.ar    1  LIG1       -0.0545
     18  C17       69.3530   35.4280   77.4160 C.ar    1  LIG1       -0.0392
     19  C18       70.4200   36.1030   76.8280 C.ar    1  LIG1       -0.0545
     20  C19       70.8460   35.8360   75.5580 C.ar    1  LIG1       -0.0197
     21  C20       70.2030   34.8590   74.8150 C.ar    1  LIG1        0.1206
     22  O2        70.5870   34.5050   73.5530 O.3     1  LIG1       -0.4907
     23  C21       71.6380   35.2150   72.9050 C.3     1  LIG1        0.1022
     24  C22       71.1050   35.6380   71.5630 C.3     1  LIG1        0.0325
     25  N1        70.1010   36.6640   71.6380 N.3     1  LIG1       -0.3051
     26  C23       70.4580   37.8310   70.8300 C.3     1  LIG1       -0.0129
     27  C24       68.8240   36.1390   71.1410 C.3     1  LIG1       -0.0129
     28  C25       69.1200   34.1600   75.3750 C.ar    1  LIG1       -0.0197
     29  C26       68.7140   34.4460   76.6480 C.ar    1  LIG1       -0.0545
     30  H1        66.4800   31.0320   82.0320 H       1  LIG1        0.2921
     31 H          68.2447   37.8145   82.5631 H       1  LIG1        0.0230
     32 H          67.2877   36.8040   81.5066 H       1  LIG1        0.0230
     33 H          67.5283   38.4910   81.1201 H       1  LIG1        0.0230
     34 H          69.6623   36.3958   81.2032 H       1  LIG1        0.0269
     35 H          69.8787   38.1033   80.8007 H       1  LIG1        0.0269
     36 H          68.9076   36.0284   78.8092 H       1  LIG1        0.0358
     37 H          66.7171   38.5651   79.4220 H       1  LIG1        0.0620
     38 H          66.2471   40.5861   78.1868 H       1  LIG1        0.0618
     39 H          67.8076   41.4227   76.5498 H       1  LIG1        0.0618
     40 H          69.8619   40.2269   76.1481 H       1  LIG1        0.0618
     41 H          70.3576   38.2056   77.3743 H       1  LIG1        0.0620
     42 H          68.7470   36.6505   79.2701 H       1  LIG1        0.0403
     43 H          66.7885   33.9999   78.4290 H       1  LIG1        0.0622
     44 H          66.1458   32.0715   79.7701 H       1  LIG1        0.0654
     45 H          69.5226   32.7073   82.2535 H       1  LIG1        0.0654
     46 H          70.1404   34.6171   80.9154 H       1  LIG1        0.0622
     47 H          70.9070   36.8322   77.3722 H       1  LIG1        0.0622
     48 H          71.6402   36.3576   75.1552 H       1  LIG1        0.0654
     49 H          72.4906   34.5806   72.7807 H       1  LIG1        0.0709
     50 H          71.9464   36.0612   73.4827 H       1  LIG1        0.0709
     51 H          70.6781   34.7818   71.0838 H       1  LIG1        0.0460
     52 H          71.9280   36.0450   71.0135 H       1  LIG1        0.0460
     53 H          71.3882   38.2323   71.1745 H       1  LIG1        0.0391
     54 H          69.6937   38.5744   70.9199 H       1  LIG1        0.0391
     55 H          70.5531   37.5395   69.8049 H       1  LIG1        0.0391
     56 H          68.5416   35.2831   71.7177 H       1  LIG1        0.0391
     57 H          68.9294   35.8581   70.1139 H       1  LIG1        0.0391
     58 H          68.0699   36.8930   71.2290 H       1  LIG1        0.0391
     59 H          68.6333   33.4335   74.8269 H       1  LIG1        0.0654
     60 H          67.9190   33.9271   77.0526 H       1  LIG1        0.0622
@<TRIPOS>BOND
     1     1     2    1
     2     2     3    1
     3     3     4    1
     4     3    10    1
     5     4     5   ar
     6     4     9   ar
     7     5     6   ar
     8     6     7   ar
     9     7     8   ar
    10     8     9   ar
    11    10    11    1
    12    10    18    1
    13    11    12   ar
    14    11    17   ar
    15    12    13   ar
    16    13    14   ar
    17    14    15    1
    18    14    16   ar
    19    15    30    1
    20    16    17   ar
    21    18    19   ar
    22    18    29   ar
    23    19    20   ar
    24    20    21   ar
    25    21    22    1
    26    21    28   ar
    27    22    23    1
    28    23    24    1
    29    24    25    1
    30    25    26    1
    31    25    27    1
    32    28    29   ar
    33     1    31    1
    34     1    32    1
    35     1    33    1
    36     2    34    1
    37     2    35    1
    38     3    36    1
    39     5    37    1
    40     6    38    1
    41     7    39    1
    42     8    40    1
    43     9    41    1
    44    10    42    1
    45    12    43    1
    46    13    44    1
    47    16    45    1
    48    17    46    1
    49    19    47    1
    50    20    48    1
    51    23    49    1
    52    23    50    1
    53    24    51    1
    54    24    52    1
    55    26    53    1
    56    26    54    1
    57    26    55    1
    58    27    56    1
    59    27    57    1
    60    27    58    1
    61    28    59    1
    62    29    60    1
