@<TRIPOS>MOLECULE
pose6.pdb
 60 62 0 0 0
SMALL
GASTEIGER

@<TRIPOS>ATOM
      1  C1        64.7500   31.6740   73.7520 C.3     1  LIG1       -0.0647
      2  C2        65.1920   33.0990   73.5620 C.3     1  LIG1       -0.0482
      3  C3        66.5390   33.1950   72.8760 C.3     1  LIG1       -0.0053
      4  C4        67.6980   33.0750   73.8120 C.ar    1  LIG1       -0.0434
      5  C5        67.5000   33.0890   75.2090 C.ar    1  LIG1       -0.0583
      6  C6        68.5780   32.9280   76.0800 C.ar    1  LIG1       -0.0615
      7  C7        69.8610   32.7550   75.6000 C.ar    1  LIG1       -0.0617
      8  C8        70.0730   32.7400   74.2420 C.ar    1  LIG1       -0.0615
      9  C9        68.9990   32.8990   73.3570 C.ar    1  LIG1       -0.0583
     10  C10       66.6680   33.3740   71.5280 C.3     1  LIG1        0.0160
     11  C11       66.3430   32.3140   70.5040 C.ar    1  LIG1       -0.0392
     12  C12       67.0410   31.0670   70.4620 C.ar    1  LIG1       -0.0545
     13  C13       66.7550   30.1220   69.4670 C.ar    1  LIG1       -0.0199
     14  C14       65.7680   30.4120   68.5070 C.ar    1  LIG1        0.1169
     15  O1        65.5210   29.4850   67.5380 O.3     1  LIG1       -0.5068
     16  C15       65.0690   31.6400   68.5400 C.ar    1  LIG1       -0.0199
     17  C16       65.3690   32.5640   69.5330 C.ar    1  LIG1       -0.0545
     18  C17       67.1590   34.6260   70.9430 C.ar    1  LIG1       -0.0392
     19  C18       66.8270   35.8650   71.4850 C.ar    1  LIG1       -0.0545
     20  C19       67.2940   37.0400   70.9680 C.ar    1  LIG1       -0.0197
     21  C20       68.1330   37.0140   69.8660 C.ar    1  LIG1        0.1206
     22  O2        68.6740   38.1380   69.3100 O.3     1  LIG1       -0.4907
     23  C21       70.0450   38.4530   69.5350 C.3     1  LIG1        0.1022
     24  C22       70.3570   39.6460   68.6720 C.3     1  LIG1        0.0325
     25  N1        71.1370   40.6520   69.3380 N.3     1  LIG1       -0.3051
     26  C23       72.5370   40.2470   69.4790 C.3     1  LIG1       -0.0129
     27  C24       71.0980   41.8970   68.5630 C.3     1  LIG1       -0.0129
     28  C25       68.4880   35.7810   69.2910 C.ar    1  LIG1       -0.0197
     29  C26       68.0060   34.6200   69.8270 C.ar    1  LIG1       -0.0545
     30  H1        65.3370   28.5980   67.7750 H       1  LIG1        0.2921
     31 H          63.7972   31.6580   74.2386 H       1  LIG1        0.0230
     32 H          65.4667   31.1555   74.3540 H       1  LIG1        0.0230
     33 H          64.6717   31.1947   72.7986 H       1  LIG1        0.0230
     34 H          65.2595   33.5693   74.5207 H       1  LIG1        0.0269
     35 H          64.4711   33.5856   72.9387 H       1  LIG1        0.0269
     36 H          66.7571   33.3370   71.8381 H       1  LIG1        0.0358
     37 H          66.5497   33.2194   75.5897 H       1  LIG1        0.0620
     38 H          68.4139   32.9384   77.0988 H       1  LIG1        0.0618
     39 H          70.6515   32.6383   76.2531 H       1  LIG1        0.0618
     40 H          71.0280   32.6110   73.8727 H       1  LIG1        0.0618
     41 H          69.1786   32.8851   72.3408 H       1  LIG1        0.0620
     42 H          66.3894   33.1478   72.5360 H       1  LIG1        0.0403
     43 H          67.7621   30.8607   71.1708 H       1  LIG1        0.0622
     44 H          67.2625   29.2239   69.4389 H       1  LIG1        0.0654
     45 H          64.3446   31.8477   67.8350 H       1  LIG1        0.0654
     46 H          64.8583   33.4605   69.5544 H       1  LIG1        0.0622
     47 H          66.2050   35.8967   72.3079 H       1  LIG1        0.0622
     48 H          67.0239   37.9399   71.3950 H       1  LIG1        0.0654
     49 H          70.6645   37.6253   69.2593 H       1  LIG1        0.0709
     50 H          70.2289   38.6640   70.5677 H       1  LIG1        0.0709
     51 H          69.4338   40.0869   68.3584 H       1  LIG1        0.0460
     52 H          70.9408   39.2920   67.8481 H       1  LIG1        0.0460
     53 H          72.5906   39.3389   70.0423 H       1  LIG1        0.0391
     54 H          73.0809   41.0151   69.9880 H       1  LIG1        0.0391
     55 H          72.9626   40.0911   68.5097 H       1  LIG1        0.0391
     56 H          70.0824   42.2131   68.4468 H       1  LIG1        0.0391
     57 H          71.5324   41.7310   67.5993 H       1  LIG1        0.0391
     58 H          71.6508   42.6549   69.0776 H       1  LIG1        0.0391
     59 H          69.1098   35.7529   68.4678 H       1  LIG1        0.0654
     60 H          68.2718   33.7188   69.4002 H       1  LIG1        0.0622
@<TRIPOS>BOND
     1     1     2    1
     2     2     3    1
     3     3     4    1
     4     3    10    1
     5     4     5   ar
     6     4     9   ar
     7     5     6   ar
     8     6     7   ar
     9     7     8   ar
    10     8     9   ar
    11    10    11    1
    12    10    18    1
    13    11    12   ar
    14    11    17   ar
    15    12    13   ar
    16    13    14   ar
    17    14    15    1
    18    14    16   ar
    19    15    30    1
    20    16    17   ar
    21    18    19   ar
    22    18    29   ar
    23    19    20   ar
    24    20    21   ar
    25    21    22    1
    26    21    28   ar
    27    22    23    1
    28    23    24    1
    29    24    25    1
    30    25    26    1
    31    25    27    1
    32    28    29   ar
    33     1    31    1
    34     1    32    1
    35     1    33    1
    36     2    34    1
    37     2    35    1
    38     3    36    1
    39     5    37    1
    40     6    38    1
    41     7    39    1
    42     8    40    1
    43     9    41    1
    44    10    42    1
    45    12    43    1
    46    13    44    1
    47    16    45    1
    48    17    46    1
    49    19    47    1
    50    20    48    1
    51    23    49    1
    52    23    50    1
    53    24    51    1
    54    24    52    1
    55    26    53    1
    56    26    54    1
    57    26    55    1
    58    27    56    1
    59    27    57    1
    60    27    58    1
    61    28    59    1
    62    29    60    1
