@<TRIPOS>MOLECULE
pose2.pdb
 60 62 0 0 0
SMALL
GASTEIGER

@<TRIPOS>ATOM
      1  C1        64.5230   35.6610   72.2330 C.3     1  LIG1       -0.0647
      2  C2        65.1080   34.2880   72.0460 C.3     1  LIG1       -0.0482
      3  C3        66.5070   34.3360   71.4670 C.3     1  LIG1       -0.0053
      4  C4        66.7070   33.4180   70.3040 C.ar    1  LIG1       -0.0434
      5  C5        66.1790   33.7390   69.0350 C.ar    1  LIG1       -0.0583
      6  C6        66.4080   32.9050   67.9400 C.ar    1  LIG1       -0.0615
      7  C7        67.1510   31.7480   68.0700 C.ar    1  LIG1       -0.0617
      8  C8        67.6720   31.4200   69.2990 C.ar    1  LIG1       -0.0615
      9  C9        67.4510   32.2490   70.4050 C.ar    1  LIG1       -0.0583
     10  C10       67.4850   35.1460   71.9690 C.3     1  LIG1        0.0160
     11  C11       68.1010   36.2930   71.2060 C.ar    1  LIG1       -0.0392
     12  C12       67.3170   37.3930   70.7370 C.ar    1  LIG1       -0.0545
     13  C13       67.9060   38.4200   69.9850 C.ar    1  LIG1       -0.0199
     14  C14       69.2820   38.3570   69.6950 C.ar    1  LIG1        0.1169
     15  O1        69.8270   39.3570   68.9450 O.3     1  LIG1       -0.5068
     16  C15       70.0670   37.2760   70.1560 C.ar    1  LIG1       -0.0199
     17  C16       69.4650   36.2690   70.8990 C.ar    1  LIG1       -0.0545
     18  C17       68.0480   34.9630   73.3110 C.ar    1  LIG1       -0.0392
     19  C18       68.9670   35.8620   73.8460 C.ar    1  LIG1       -0.0545
     20  C19       69.4830   35.7220   75.1030 C.ar    1  LIG1       -0.0197
     21  C20       69.0850   34.6510   75.8880 C.ar    1  LIG1        0.1206
     22  O2        69.5230   34.4580   77.1660 O.3     1  LIG1       -0.4907
     23  C21       70.6940   33.6820   77.4060 C.3     1  LIG1        0.1022
     24  C22       71.1510   34.0180   78.8000 C.3     1  LIG1        0.0325
     25  N1        70.5940   33.1630   79.8120 N.3     1  LIG1       -0.3051
     26  C23       70.7170   31.7490   79.4540 C.3     1  LIG1       -0.0129
     27  C24       71.3010   33.3760   81.0800 C.3     1  LIG1       -0.0129
     28  C25       68.1610   33.7220   75.3790 C.ar    1  LIG1       -0.0197
     29  C26       67.6600   33.8860   74.1180 C.ar    1  LIG1       -0.0545
     30  H1        69.4700   40.2220   68.9880 H       1  LIG1        0.2921
     31 H          63.5381   35.5763   72.6426 H       1  LIG1        0.0230
     32 H          64.4744   36.1598   71.2876 H       1  LIG1        0.0230
     33 H          65.1403   36.2236   72.9018 H       1  LIG1        0.0230
     34 H          64.4790   33.7330   71.3817 H       1  LIG1        0.0269
     35 H          65.1663   33.8221   73.0075 H       1  LIG1        0.0269
     36 H          67.3387   34.9299   71.7840 H       1  LIG1        0.0358
     37 H          65.6190   34.5976   68.9160 H       1  LIG1        0.0620
     38 H          66.0162   33.1565   67.0190 H       1  LIG1        0.0618
     39 H          67.3131   31.1371   67.2542 H       1  LIG1        0.0618
     40 H          68.2290   30.5580   69.4069 H       1  LIG1        0.0618
     41 H          67.8510   31.9851   71.3190 H       1  LIG1        0.0620
     42 H          66.6420   34.6776   71.5055 H       1  LIG1        0.0403
     43 H          66.3088   37.4316   70.9538 H       1  LIG1        0.0622
     44 H          67.3373   39.2126   69.6482 H       1  LIG1        0.0654
     45 H          71.0760   37.2354   69.9429 H       1  LIG1        0.0654
     46 H          70.0406   35.4807   71.2341 H       1  LIG1        0.0622
     47 H          69.2696   36.6640   73.2714 H       1  LIG1        0.0622
     48 H          70.1636   36.4080   75.4653 H       1  LIG1        0.0654
     49 H          71.4552   33.9325   76.6970 H       1  LIG1        0.0709
     50 H          70.4921   32.6359   77.3066 H       1  LIG1        0.0709
     51 H          70.8657   35.0265   79.0152 H       1  LIG1        0.0460
     52 H          72.2118   33.8802   78.8232 H       1  LIG1        0.0460
     53 H          70.2078   31.5694   78.5302 H       1  LIG1        0.0391
     54 H          70.2818   31.1469   80.2241 H       1  LIG1        0.0391
     55 H          71.7513   31.4971   79.3460 H       1  LIG1        0.0391
     56 H          71.2246   34.4052   81.3625 H       1  LIG1        0.0391
     57 H          72.3317   33.1141   80.9620 H       1  LIG1        0.0391
     58 H          70.8623   32.7640   81.8402 H       1  LIG1        0.0391
     59 H          67.8622   32.9195   75.9550 H       1  LIG1        0.0654
     60 H          66.9805   33.2008   73.7522 H       1  LIG1        0.0622
@<TRIPOS>BOND
     1     1     2    1
     2     2     3    1
     3     3     4    1
     4     3    10    1
     5     4     5   ar
     6     4     9   ar
     7     5     6   ar
     8     6     7   ar
     9     7     8   ar
    10     8     9   ar
    11    10    11    1
    12    10    18    1
    13    11    12   ar
    14    11    17   ar
    15    12    13   ar
    16    13    14   ar
    17    14    15    1
    18    14    16   ar
    19    15    30    1
    20    16    17   ar
    21    18    19   ar
    22    18    29   ar
    23    19    20   ar
    24    20    21   ar
    25    21    22    1
    26    21    28   ar
    27    22    23    1
    28    23    24    1
    29    24    25    1
    30    25    26    1
    31    25    27    1
    32    28    29   ar
    33     1    31    1
    34     1    32    1
    35     1    33    1
    36     2    34    1
    37     2    35    1
    38     3    36    1
    39     5    37    1
    40     6    38    1
    41     7    39    1
    42     8    40    1
    43     9    41    1
    44    10    42    1
    45    12    43    1
    46    13    44    1
    47    16    45    1
    48    17    46    1
    49    19    47    1
    50    20    48    1
    51    23    49    1
    52    23    50    1
    53    24    51    1
    54    24    52    1
    55    26    53    1
    56    26    54    1
    57    26    55    1
    58    27    56    1
    59    27    57    1
    60    27    58    1
    61    28    59    1
    62    29    60    1
