@<TRIPOS>MOLECULE
pose0.pdb
 60 62 0 0 0
SMALL
GASTEIGER

@<TRIPOS>ATOM
      1  C1        70.6340   30.7840   70.8870 C.3     1  LIG1       -0.0647
      2  C2        69.5750   30.4860   71.9130 C.3     1  LIG1       -0.0482
      3  C3        68.5450   31.5920   72.0100 C.3     1  LIG1       -0.0053
      4  C4        68.7780   32.5310   73.1490 C.ar    1  LIG1       -0.0434
      5  C5        69.0790   33.8890   72.9120 C.ar    1  LIG1       -0.0583
      6  C6        69.2480   34.7750   73.9760 C.ar    1  LIG1       -0.0615
      7  C7        69.1300   34.3470   75.2840 C.ar    1  LIG1       -0.0617
      8  C8        68.8390   33.0270   75.5340 C.ar    1  LIG1       -0.0615
      9  C9        68.6650   32.1290   74.4740 C.ar    1  LIG1       -0.0583
     10  C10       67.5040   31.7090   71.1340 C.3     1  LIG1        0.0160
     11  C11       66.6100   30.5610   70.7330 C.ar    1  LIG1       -0.0392
     12  C12       65.9530   29.7430   71.7040 C.ar    1  LIG1       -0.0545
     13  C13       65.1690   28.6510   71.3060 C.ar    1  LIG1       -0.0199
     14  C14       65.0350   28.3650   69.9340 C.ar    1  LIG1        0.1169
     15  O1        64.2850   27.2870   69.5720 O.3     1  LIG1       -0.5068
     16  C15       65.6780   29.1690   68.9640 C.ar    1  LIG1       -0.0199
     17  C16       66.4500   30.2460   69.3800 C.ar    1  LIG1       -0.0545
     18  C17       67.1650   32.9750   70.4780 C.ar    1  LIG1       -0.0392
     19  C18       65.8500   33.4310   70.4060 C.ar    1  LIG1       -0.0545
     20  C19       65.5180   34.6200   69.8210 C.ar    1  LIG1       -0.0197
     21  C20       66.5140   35.4140   69.2760 C.ar    1  LIG1        0.1206
     22  O2        66.2730   36.6320   68.7070 O.3     1  LIG1       -0.4907
     23  C21       67.3120   37.3040   68.0010 C.3     1  LIG1        0.1022
     24  C22       67.4240   38.6750   68.6100 C.3     1  LIG1        0.0325
     25  N1        68.3260   39.5470   67.9080 N.3     1  LIG1       -0.3051
     26  C23       67.7830   40.9010   67.7840 C.3     1  LIG1       -0.0129
     27  C24       69.5970   39.6300   68.6370 C.3     1  LIG1       -0.0129
     28  C25       67.8520   34.9840   69.3280 C.ar    1  LIG1       -0.0197
     29  C26       68.1580   33.7910   69.9190 C.ar    1  LIG1       -0.0545
     30  H1        64.7040   26.4870   69.3230 H       1  LIG1        0.2921
     31 H          71.3363   29.9774   70.8547 H       1  LIG1        0.0230
     32 H          71.1414   31.6884   71.1505 H       1  LIG1        0.0230
     33 H          70.1775   30.8981   69.9260 H       1  LIG1        0.0230
     34 H          70.0438   30.3670   72.8675 H       1  LIG1        0.0269
     35 H          69.0696   29.5918   71.6132 H       1  LIG1        0.0269
     36 H          67.7092   31.7767   71.3680 H       1  LIG1        0.0358
     37 H          69.1750   34.2298   71.9426 H       1  LIG1        0.0620
     38 H          69.4645   35.7654   73.7830 H       1  LIG1        0.0618
     39 H          69.2588   35.0102   76.0641 H       1  LIG1        0.0618
     40 H          68.7484   32.6964   76.5074 H       1  LIG1        0.0618
     41 H          68.4470   31.1421   74.6825 H       1  LIG1        0.0620
     42 H          68.1873   31.5140   71.9340 H       1  LIG1        0.0403
     43 H          66.0568   29.9584   72.7079 H       1  LIG1        0.0622
     44 H          64.6957   28.0638   72.0104 H       1  LIG1        0.0654
     45 H          65.5747   28.9578   67.9591 H       1  LIG1        0.0654
     46 H          66.9189   30.8304   68.6704 H       1  LIG1        0.0622
     47 H          65.0994   32.8490   70.8095 H       1  LIG1        0.0622
     48 H          64.5326   34.9245   69.7853 H       1  LIG1        0.0654
     49 H          67.0645   37.3797   66.9628 H       1  LIG1        0.0709
     50 H          68.2370   36.7712   68.0740 H       1  LIG1        0.0709
     51 H          67.7705   38.5701   69.6169 H       1  LIG1        0.0460
     52 H          66.4529   39.1211   68.5570 H       1  LIG1        0.0460
     53 H          66.8539   40.8656   67.2545 H       1  LIG1        0.0391
     54 H          68.4758   41.5154   67.2479 H       1  LIG1        0.0391
     55 H          67.6225   41.3116   68.7590 H       1  LIG1        0.0391
     56 H          70.0137   38.6499   68.7401 H       1  LIG1        0.0391
     57 H          69.4253   40.0484   69.6067 H       1  LIG1        0.0391
     58 H          70.2787   40.2522   68.0957 H       1  LIG1        0.0391
     59 H          68.5998   35.5675   68.9213 H       1  LIG1        0.0654
     60 H          69.1425   33.4837   69.9547 H       1  LIG1        0.0622
@<TRIPOS>BOND
     1     1     2    1
     2     2     3    1
     3     3     4    1
     4     3    10    1
     5     4     5   ar
     6     4     9   ar
     7     5     6   ar
     8     6     7   ar
     9     7     8   ar
    10     8     9   ar
    11    10    11    1
    12    10    18    1
    13    11    12   ar
    14    11    17   ar
    15    12    13   ar
    16    13    14   ar
    17    14    15    1
    18    14    16   ar
    19    15    30    1
    20    16    17   ar
    21    18    19   ar
    22    18    29   ar
    23    19    20   ar
    24    20    21   ar
    25    21    22    1
    26    21    28   ar
    27    22    23    1
    28    23    24    1
    29    24    25    1
    30    25    26    1
    31    25    27    1
    32    28    29   ar
    33     1    31    1
    34     1    32    1
    35     1    33    1
    36     2    34    1
    37     2    35    1
    38     3    36    1
    39     5    37    1
    40     6    38    1
    41     7    39    1
    42     8    40    1
    43     9    41    1
    44    10    42    1
    45    12    43    1
    46    13    44    1
    47    16    45    1
    48    17    46    1
    49    19    47    1
    50    20    48    1
    51    23    49    1
    52    23    50    1
    53    24    51    1
    54    24    52    1
    55    26    53    1
    56    26    54    1
    57    26    55    1
    58    27    56    1
    59    27    57    1
    60    27    58    1
    61    28    59    1
    62    29    60    1
