@<TRIPOS>MOLECULE
pose3.pdb
 60 62 0 0 0
SMALL
GASTEIGER

@<TRIPOS>ATOM
      1  C1        66.0860   33.7180   69.4490 C.3     1  LIG1       -0.0647
      2  C2        67.5390   34.0980   69.5300 C.3     1  LIG1       -0.0482
      3  C3        68.0420   34.1340   70.9580 C.3     1  LIG1       -0.0053
      4  C4        68.3320   32.7830   71.5270 C.ar    1  LIG1       -0.0434
      5  C5        69.4970   32.0800   71.1530 C.ar    1  LIG1       -0.0583
      6  C6        69.7910   30.8400   71.7220 C.ar    1  LIG1       -0.0615
      7  C7        68.9520   30.2700   72.6590 C.ar    1  LIG1       -0.0617
      8  C8        67.8120   30.9410   73.0330 C.ar    1  LIG1       -0.0615
      9  C9        67.5070   32.1860   72.4720 C.ar    1  LIG1       -0.0583
     10  C10       68.2100   35.2990   71.6510 C.3     1  LIG1        0.0160
     11  C11       68.4250   36.6420   70.9970 C.ar    1  LIG1       -0.0392
     12  C12       67.6020   37.0950   69.9190 C.ar    1  LIG1       -0.0545
     13  C13       67.8550   38.3250   69.2950 C.ar    1  LIG1       -0.0199
     14  C14       68.9330   39.1130   69.7410 C.ar    1  LIG1        0.1169
     15  O1        69.1720   40.2950   69.1050 O.3     1  LIG1       -0.5068
     16  C15       69.7510   38.6770   70.8080 C.ar    1  LIG1       -0.0199
     17  C16       69.4840   37.4550   71.4120 C.ar    1  LIG1       -0.0545
     18  C17       68.2160   35.3520   73.1160 C.ar    1  LIG1       -0.0392
     19  C18       69.2190   36.0130   73.8200 C.ar    1  LIG1       -0.0545
     20  C19       69.2270   36.0930   75.1840 C.ar    1  LIG1       -0.0197
     21  C20       68.2040   35.5020   75.9070 C.ar    1  LIG1        0.1206
     22  O2        68.1160   35.5670   77.2680 O.3     1  LIG1       -0.4907
     23  C21       68.8970   36.5170   77.9860 C.3     1  LIG1        0.1022
     24  C22       67.9940   37.6860   78.2720 C.3     1  LIG1        0.0325
     25  N1        67.6060   37.7920   79.6520 N.3     1  LIG1       -0.3051
     26  C23       68.1950   38.9710   80.2900 C.3     1  LIG1       -0.0129
     27  C24       66.1460   37.9050   79.7450 C.3     1  LIG1       -0.0129
     28  C25       67.1750   34.8240   75.2300 C.ar    1  LIG1       -0.0197
     29  C26       67.1910   34.7580   73.8650 C.ar    1  LIG1       -0.0545
     30  H1        68.6000   41.0250   69.2420 H       1  LIG1        0.2921
     31 H          65.7771   33.7059   68.4246 H       1  LIG1        0.0230
     32 H          65.5001   34.4315   69.9899 H       1  LIG1        0.0230
     33 H          65.9472   32.7463   69.8749 H       1  LIG1        0.0230
     34 H          67.6664   35.0673   69.0952 H       1  LIG1        0.0269
     35 H          68.1023   33.3573   69.0019 H       1  LIG1        0.0269
     36 H          68.2135   34.9865   71.5815 H       1  LIG1        0.0358
     37 H          70.1370   32.4863   70.4528 H       1  LIG1        0.0620
     38 H          70.6488   30.3413   71.4381 H       1  LIG1        0.0618
     39 H          69.1779   29.3521   73.0732 H       1  LIG1        0.0618
     40 H          67.1773   30.5240   73.7318 H       1  LIG1        0.0618
     41 H          66.6469   32.6735   72.7679 H       1  LIG1        0.0620
     42 H          67.9492   34.4893   71.0019 H       1  LIG1        0.0403
     43 H          66.8143   36.5111   69.5971 H       1  LIG1        0.0622
     44 H          67.2580   38.6488   68.5180 H       1  LIG1        0.0654
     45 H          70.5376   39.2598   71.1346 H       1  LIG1        0.0654
     46 H          70.0844   37.1382   72.1892 H       1  LIG1        0.0622
     47 H          69.9851   36.4592   73.2918 H       1  LIG1        0.0622
     48 H          69.9890   36.5897   75.6715 H       1  LIG1        0.0654
     49 H          69.7318   36.8311   77.3950 H       1  LIG1        0.0709
     50 H          69.2818   36.0956   78.8911 H       1  LIG1        0.0709
     51 H          67.1092   37.5824   77.6793 H       1  LIG1        0.0460
     52 H          68.5441   38.5721   78.0328 H       1  LIG1        0.0460
     53 H          69.2619   38.9110   80.2345 H       1  LIG1        0.0391
     54 H          67.8928   39.0099   81.3157 H       1  LIG1        0.0391
     55 H          67.8607   39.8537   79.7860 H       1  LIG1        0.0391
     56 H          65.6922   37.0525   79.2843 H       1  LIG1        0.0391
     57 H          65.8245   38.7944   79.2444 H       1  LIG1        0.0391
     58 H          65.8566   37.9505   80.7741 H       1  LIG1        0.0391
     59 H          66.4110   34.3781   75.7615 H       1  LIG1        0.0654
     60 H          66.4316   34.2598   73.3750 H       1  LIG1        0.0622
@<TRIPOS>BOND
     1     1     2    1
     2     2     3    1
     3     3     4    1
     4     3    10    1
     5     4     5   ar
     6     4     9   ar
     7     5     6   ar
     8     6     7   ar
     9     7     8   ar
    10     8     9   ar
    11    10    11    1
    12    10    18    1
    13    11    12   ar
    14    11    17   ar
    15    12    13   ar
    16    13    14   ar
    17    14    15    1
    18    14    16   ar
    19    15    30    1
    20    16    17   ar
    21    18    19   ar
    22    18    29   ar
    23    19    20   ar
    24    20    21   ar
    25    21    22    1
    26    21    28   ar
    27    22    23    1
    28    23    24    1
    29    24    25    1
    30    25    26    1
    31    25    27    1
    32    28    29   ar
    33     1    31    1
    34     1    32    1
    35     1    33    1
    36     2    34    1
    37     2    35    1
    38     3    36    1
    39     5    37    1
    40     6    38    1
    41     7    39    1
    42     8    40    1
    43     9    41    1
    44    10    42    1
    45    12    43    1
    46    13    44    1
    47    16    45    1
    48    17    46    1
    49    19    47    1
    50    20    48    1
    51    23    49    1
    52    23    50    1
    53    24    51    1
    54    24    52    1
    55    26    53    1
    56    26    54    1
    57    26    55    1
    58    27    56    1
    59    27    57    1
    60    27    58    1
    61    28    59    1
    62    29    60    1
