@<TRIPOS>MOLECULE
pose1.pdb
 58 60 0 0 0
SMALL
GASTEIGER

@<TRIPOS>ATOM
      1  C1        69.3850   38.9950   77.7580 C.3     1  LIG1       -0.0612
      2  C2        70.0870   38.1720   78.8040 C.3     1  LIG1       -0.0294
      3  C3        69.1200   37.3450   79.6250 C.2     1  LIG1       -0.0322
      4  C4        68.7100   37.9970   80.9060 C.ar    1  LIG1       -0.0213
      5  C5        69.6280   38.1330   81.9700 C.ar    1  LIG1       -0.0543
      6  C6        69.2580   38.7860   83.1470 C.ar    1  LIG1       -0.0612
      7  C7        67.9900   39.3110   83.3010 C.ar    1  LIG1       -0.0617
      8  C8        67.0830   39.1860   82.2750 C.ar    1  LIG1       -0.0612
      9  C9        67.4420   38.5350   81.0900 C.ar    1  LIG1       -0.0543
     10  C10       68.6720   36.1190   79.2230 C.2     1  LIG1       -0.0070
     11  C11       67.9510   35.1500   80.1260 C.ar    1  LIG1       -0.0168
     12  C12       66.5290   35.1760   80.2780 C.ar    1  LIG1       -0.0506
     13  C13       65.8890   34.2980   81.1640 C.ar    1  LIG1       -0.0196
     14  C14       66.6620   33.3860   81.9060 C.ar    1  LIG1        0.1169
     15  O1        66.0190   32.5570   82.7760 O.3     1  LIG1       -0.5068
     16  C15       68.0680   33.3490   81.7630 C.ar    1  LIG1       -0.0196
     17  C16       68.6830   34.2280   80.8800 C.ar    1  LIG1       -0.0506
     18  C17       68.8680   35.6170   77.8590 C.ar    1  LIG1       -0.0168
     19  C18       70.1350   35.3090   77.3700 C.ar    1  LIG1       -0.0506
     20  C19       70.3350   34.8170   76.1110 C.ar    1  LIG1       -0.0194
     21  C20       69.2460   34.6090   75.2790 C.ar    1  LIG1        0.1206
     22  O2        69.3540   34.0870   74.0220 O.3     1  LIG1       -0.4907
     23  C21       68.6170   34.6640   72.9480 C.3     1  LIG1        0.1022
     24  C22       69.3440   35.9220   72.5580 C.3     1  LIG1        0.0325
     25  N1        70.7520   35.7320   72.3420 N.3     1  LIG1       -0.3051
     26  C23       71.0710   35.6210   70.9180 C.3     1  LIG1       -0.0129
     27  C24       71.4910   36.8770   72.8870 C.3     1  LIG1       -0.0129
     28  C25       67.9530   34.9120   75.7390 C.ar    1  LIG1       -0.0194
     29  C26       67.7800   35.4030   77.0030 C.ar    1  LIG1       -0.0506
     30  H1        65.9090   31.6500   82.5650 H       1  LIG1        0.2921
     31 H          70.1063   39.5600   77.2054 H       1  LIG1        0.0233
     32 H          68.6964   39.6626   78.2323 H       1  LIG1        0.0233
     33 H          68.8532   38.3476   77.0925 H       1  LIG1        0.0233
     34 H          70.6205   38.8290   79.4586 H       1  LIG1        0.0311
     35 H          70.7506   37.4993   78.3020 H       1  LIG1        0.0311
     36 H          70.5803   37.7465   81.8768 H       1  LIG1        0.0624
     37 H          69.9425   38.8778   83.9138 H       1  LIG1        0.0618
     38 H          67.7263   39.7913   84.1755 H       1  LIG1        0.0618
     39 H          66.1326   39.5744   82.3797 H       1  LIG1        0.0618
     40 H          66.7465   38.4521   80.3321 H       1  LIG1        0.0624
     41 H          65.9687   35.8476   79.7302 H       1  LIG1        0.0625
     42 H          64.8628   34.3203   81.2708 H       1  LIG1        0.0654
     43 H          68.6308   32.6772   82.3079 H       1  LIG1        0.0654
     44 H          69.7095   34.1994   80.7778 H       1  LIG1        0.0625
     45 H          70.9532   35.4578   77.9811 H       1  LIG1        0.0625
     46 H          71.2893   34.6020   75.7822 H       1  LIG1        0.0654
     47 H          67.6217   34.8955   73.2652 H       1  LIG1        0.0709
     48 H          68.5435   33.9878   72.1220 H       1  LIG1        0.0709
     49 H          69.2162   36.6420   73.3391 H       1  LIG1        0.0460
     50 H          68.9264   36.2493   71.6288 H       1  LIG1        0.0460
     51 H          70.5425   34.7910   70.4977 H       1  LIG1        0.0391
     52 H          72.1237   35.4707   70.7990 H       1  LIG1        0.0391
     53 H          70.7801   36.5201   70.4162 H       1  LIG1        0.0391
     54 H          71.2732   36.9785   73.9297 H       1  LIG1        0.0391
     55 H          71.1975   37.7683   72.3729 H       1  LIG1        0.0391
     56 H          72.5411   36.7189   72.7557 H       1  LIG1        0.0391
     57 H          67.1370   34.7643   75.1247 H       1  LIG1        0.0654
     58 H          66.8270   35.6208   77.3338 H       1  LIG1        0.0625
@<TRIPOS>BOND
     1     1     2    1
     2     2     3    1
     3     3     4    1
     4     3    10    2
     5     4     5   ar
     6     4     9   ar
     7     5     6   ar
     8     6     7   ar
     9     7     8   ar
    10     8     9   ar
    11    10    11    1
    12    10    18    1
    13    11    12   ar
    14    11    17   ar
    15    12    13   ar
    16    13    14   ar
    17    14    15    1
    18    14    16   ar
    19    15    30    1
    20    16    17   ar
    21    18    19   ar
    22    18    29   ar
    23    19    20   ar
    24    20    21   ar
    25    21    22    1
    26    21    28   ar
    27    22    23    1
    28    23    24    1
    29    24    25    1
    30    25    26    1
    31    25    27    1
    32    28    29   ar
    33     1    31    1
    34     1    32    1
    35     1    33    1
    36     2    34    1
    37     2    35    1
    38     5    36    1
    39     6    37    1
    40     7    38    1
    41     8    39    1
    42     9    40    1
    43    12    41    1
    44    13    42    1
    45    16    43    1
    46    17    44    1
    47    19    45    1
    48    20    46    1
    49    23    47    1
    50    23    48    1
    51    24    49    1
    52    24    50    1
    53    26    51    1
    54    26    52    1
    55    26    53    1
    56    27    54    1
    57    27    55    1
    58    27    56    1
    59    28    57    1
    60    29    58    1
