@<TRIPOS>MOLECULE
pose9.pdb
 60 62 0 0 0
SMALL
GASTEIGER

@<TRIPOS>ATOM
      1  C1        71.2440   32.4090   75.0760 C.3     1  LIG1       -0.0647
      2  C2        71.0310   33.6190   75.9440 C.3     1  LIG1       -0.0482
      3  C3        69.6590   33.6300   76.5860 C.3     1  LIG1       -0.0053
      4  C4        69.4370   32.5040   77.5440 C.ar    1  LIG1       -0.0434
      5  C5        68.1720   32.3010   78.1350 C.ar    1  LIG1       -0.0583
      6  C6        67.9540   31.2210   78.9910 C.ar    1  LIG1       -0.0615
      7  C7        68.9660   30.3280   79.2830 C.ar    1  LIG1       -0.0617
      8  C8        70.2060   30.5120   78.7170 C.ar    1  LIG1       -0.0615
      9  C9        70.4370   31.5900   77.8560 C.ar    1  LIG1       -0.0583
     10  C10       68.7230   34.5830   76.3070 C.3     1  LIG1        0.0160
     11  C11       68.3450   35.6930   77.2570 C.ar    1  LIG1       -0.0392
     12  C12       68.3790   35.5160   78.6760 C.ar    1  LIG1       -0.0545
     13  C13       67.9730   36.5470   79.5350 C.ar    1  LIG1       -0.0199
     14  C14       67.5300   37.7650   78.9850 C.ar    1  LIG1        0.1169
     15  O1        67.1210   38.7450   79.8390 O.3     1  LIG1       -0.5068
     16  C15       67.4950   37.9530   77.5840 C.ar    1  LIG1       -0.0199
     17  C16       67.9000   36.9180   76.7510 C.ar    1  LIG1       -0.0545
     18  C17       67.9730   34.6070   75.0480 C.ar    1  LIG1       -0.0392
     19  C18       66.9230   33.7250   74.8050 C.ar    1  LIG1       -0.0545
     20  C19       66.1980   33.7490   73.6470 C.ar    1  LIG1       -0.0197
     21  C20       66.5050   34.6830   72.6700 C.ar    1  LIG1        0.1206
     22  O2        65.8070   34.7990   71.5020 O.3     1  LIG1       -0.4907
     23  C21       64.6790   33.9640   71.2620 C.3     1  LIG1        0.1022
     24  C22       65.1810   32.7790   70.4820 C.3     1  LIG1        0.0325
     25  N1        66.6140   32.6710   70.4550 N.3     1  LIG1       -0.3051
     26  C23       67.0750   31.4340   71.0880 C.3     1  LIG1       -0.0129
     27  C24       67.0800   32.6720   69.0630 C.3     1  LIG1       -0.0129
     28  C25       67.5600   35.5870   72.8790 C.ar    1  LIG1       -0.0197
     29  C26       68.2700   35.5420   74.0460 C.ar    1  LIG1       -0.0545
     30  H1        66.3370   39.2250   79.6610 H       1  LIG1        0.2921
     31 H          72.2233   32.4462   74.6464 H       1  LIG1        0.0230
     32 H          70.5123   32.3968   74.2954 H       1  LIG1        0.0230
     33 H          71.1480   31.5234   75.6688 H       1  LIG1        0.0230
     34 H          71.1366   34.4974   75.3422 H       1  LIG1        0.0269
     35 H          71.7594   33.5929   76.7274 H       1  LIG1        0.0269
     36 H          68.8590   34.3265   76.4452 H       1  LIG1        0.0358
     37 H          67.4014   32.9569   77.9324 H       1  LIG1        0.0620
     38 H          67.0216   31.0874   79.4126 H       1  LIG1        0.0618
     39 H          68.7941   29.5327   79.9178 H       1  LIG1        0.0618
     40 H          70.9700   29.8513   78.9286 H       1  LIG1        0.0618
     41 H          71.3744   31.7100   77.4415 H       1  LIG1        0.0620
     42 H          69.5689   33.9894   76.5847 H       1  LIG1        0.0403
     43 H          68.7056   34.6205   79.0714 H       1  LIG1        0.0622
     44 H          67.9986   36.4147   80.5582 H       1  LIG1        0.0654
     45 H          67.1724   38.8485   77.1852 H       1  LIG1        0.0654
     46 H          67.8716   37.0573   75.7288 H       1  LIG1        0.0622
     47 H          66.6835   33.0271   75.5265 H       1  LIG1        0.0622
     48 H          65.4282   33.0773   73.5011 H       1  LIG1        0.0654
     49 H          63.9414   34.4933   70.6958 H       1  LIG1        0.0709
     50 H          64.2231   33.6572   72.1801 H       1  LIG1        0.0709
     51 H          64.8295   32.8638   69.4750 H       1  LIG1        0.0460
     52 H          64.8102   31.9025   70.9710 H       1  LIG1        0.0460
     53 H          66.7466   31.4105   72.1061 H       1  LIG1        0.0391
     54 H          68.1438   31.3943   71.0570 H       1  LIG1        0.0391
     55 H          66.6715   30.5931   70.5635 H       1  LIG1        0.0391
     56 H          66.7544   33.5687   68.5785 H       1  LIG1        0.0391
     57 H          66.6765   31.8234   68.5512 H       1  LIG1        0.0391
     58 H          68.1488   32.6246   69.0446 H       1  LIG1        0.0391
     59 H          67.7979   36.2822   72.1543 H       1  LIG1        0.0654
     60 H          69.0419   36.2110   74.1930 H       1  LIG1        0.0622
@<TRIPOS>BOND
     1     1     2    1
     2     2     3    1
     3     3     4    1
     4     3    10    1
     5     4     5   ar
     6     4     9   ar
     7     5     6   ar
     8     6     7   ar
     9     7     8   ar
    10     8     9   ar
    11    10    11    1
    12    10    18    1
    13    11    12   ar
    14    11    17   ar
    15    12    13   ar
    16    13    14   ar
    17    14    15    1
    18    14    16   ar
    19    15    30    1
    20    16    17   ar
    21    18    19   ar
    22    18    29   ar
    23    19    20   ar
    24    20    21   ar
    25    21    22    1
    26    21    28   ar
    27    22    23    1
    28    23    24    1
    29    24    25    1
    30    25    26    1
    31    25    27    1
    32    28    29   ar
    33     1    31    1
    34     1    32    1
    35     1    33    1
    36     2    34    1
    37     2    35    1
    38     3    36    1
    39     5    37    1
    40     6    38    1
    41     7    39    1
    42     8    40    1
    43     9    41    1
    44    10    42    1
    45    12    43    1
    46    13    44    1
    47    16    45    1
    48    17    46    1
    49    19    47    1
    50    20    48    1
    51    23    49    1
    52    23    50    1
    53    24    51    1
    54    24    52    1
    55    26    53    1
    56    26    54    1
    57    26    55    1
    58    27    56    1
    59    27    57    1
    60    27    58    1
    61    28    59    1
    62    29    60    1
