@<TRIPOS>MOLECULE
pose5.pdb
 60 62 0 0 0
SMALL
GASTEIGER

@<TRIPOS>ATOM
      1  C1        69.0940   32.0760   69.7950 C.3     1  LIG1       -0.0647
      2  C2        67.7130   32.5160   70.1980 C.3     1  LIG1       -0.0482
      3  C3        67.5970   32.7410   71.6910 C.3     1  LIG1       -0.0053
      4  C4        66.5980   31.8500   72.3560 C.ar    1  LIG1       -0.0434
      5  C5        66.7980   30.4540   72.4040 C.ar    1  LIG1       -0.0583
      6  C6        65.8890   29.6290   73.0670 C.ar    1  LIG1       -0.0615
      7  C7        64.7740   30.1550   73.6890 C.ar    1  LIG1       -0.0617
      8  C8        64.5620   31.5130   73.6510 C.ar    1  LIG1       -0.0615
      9  C9        65.4680   32.3510   72.9900 C.ar    1  LIG1       -0.0583
     10  C10       68.3410   33.6740   72.3560 C.3     1  LIG1        0.0160
     11  C11       68.8800   34.9300   71.7160 C.ar    1  LIG1       -0.0392
     12  C12       70.2460   35.0430   71.3110 C.ar    1  LIG1       -0.0545
     13  C13       70.7340   36.2400   70.7680 C.ar    1  LIG1       -0.0199
     14  C14       69.8610   37.3350   70.6240 C.ar    1  LIG1        0.1169
     15  O1        70.3630   38.4940   70.1120 O.3     1  LIG1       -0.5068
     16  C15       68.5070   37.2340   71.0190 C.ar    1  LIG1       -0.0199
     17  C16       68.0440   36.0400   71.5560 C.ar    1  LIG1       -0.0545
     18  C17       68.7030   33.5310   73.7690 C.ar    1  LIG1       -0.0392
     19  C18       68.0620   34.2640   74.7650 C.ar    1  LIG1       -0.0545
     20  C19       68.3700   34.1270   76.0900 C.ar    1  LIG1       -0.0197
     21  C20       69.3520   33.2260   76.4710 C.ar    1  LIG1        0.1206
     22  O2        69.6940   33.0010   77.7730 O.3     1  LIG1       -0.4907
     23  C21       68.7980   32.3030   78.6330 C.3     1  LIG1        0.1022
     24  C22       69.6360   31.3540   79.4460 C.3     1  LIG1        0.0325
     25  N1        68.8690   30.3680   80.1560 N.3     1  LIG1       -0.3051
     26  C23       69.0330   29.0340   79.5770 C.3     1  LIG1       -0.0129
     27  C24       69.3100   30.3170   81.5550 C.3     1  LIG1       -0.0129
     28  C25       70.0220   32.4710   75.4930 C.ar    1  LIG1       -0.0197
     29  C26       69.6950   32.6280   74.1750 C.ar    1  LIG1       -0.0545
     30  H1        70.1030   38.7810   69.2590 H       1  LIG1        0.2921
     31 H          69.1269   31.9302   68.7355 H       1  LIG1        0.0230
     32 H          69.3341   31.1577   70.2890 H       1  LIG1        0.0230
     33 H          69.8032   32.8271   70.0739 H       1  LIG1        0.0230
     34 H          67.0125   31.7610   69.9079 H       1  LIG1        0.0269
     35 H          67.5087   33.4455   69.7090 H       1  LIG1        0.0269
     36 H          68.1295   33.4382   72.3036 H       1  LIG1        0.0358
     37 H          67.6240   30.0396   71.9446 H       1  LIG1        0.0620
     38 H          66.0524   28.6103   73.0930 H       1  LIG1        0.0618
     39 H          64.1076   29.5361   74.1767 H       1  LIG1        0.0618
     40 H          63.7313   31.9163   74.1118 H       1  LIG1        0.0618
     41 H          65.2918   33.3677   72.9733 H       1  LIG1        0.0620
     42 H          67.6715   33.0925   71.7572 H       1  LIG1        0.0403
     43 H          70.8794   34.2355   71.4193 H       1  LIG1        0.0622
     44 H          71.7212   36.3174   70.4774 H       1  LIG1        0.0654
     45 H          67.8701   38.0386   70.9094 H       1  LIG1        0.0654
     46 H          67.0558   35.9697   71.8450 H       1  LIG1        0.0622
     47 H          67.3272   34.9355   74.4926 H       1  LIG1        0.0622
     48 H          67.8757   34.6894   76.8002 H       1  LIG1        0.0654
     49 H          68.0797   31.7596   78.0554 H       1  LIG1        0.0709
     50 H          68.2605   32.9806   79.2630 H       1  LIG1        0.0709
     51 H          70.1960   31.9233   80.1582 H       1  LIG1        0.0460
     52 H          70.2646   30.8260   78.7598 H       1  LIG1        0.0460
     53 H          68.7169   29.0475   78.5549 H       1  LIG1        0.0391
     54 H          68.4395   28.3321   80.1247 H       1  LIG1        0.0391
     55 H          70.0625   28.7471   79.6282 H       1  LIG1        0.0391
     56 H          69.1987   31.2839   81.9995 H       1  LIG1        0.0391
     57 H          70.3379   30.0225   81.5944 H       1  LIG1        0.0391
     58 H          68.7149   29.6074   82.0909 H       1  LIG1        0.0391
     59 H          70.7573   31.8013   75.7686 H       1  LIG1        0.0654
     60 H          70.1899   32.0688   73.4627 H       1  LIG1        0.0622
@<TRIPOS>BOND
     1     1     2    1
     2     2     3    1
     3     3     4    1
     4     3    10    1
     5     4     5   ar
     6     4     9   ar
     7     5     6   ar
     8     6     7   ar
     9     7     8   ar
    10     8     9   ar
    11    10    11    1
    12    10    18    1
    13    11    12   ar
    14    11    17   ar
    15    12    13   ar
    16    13    14   ar
    17    14    15    1
    18    14    16   ar
    19    15    30    1
    20    16    17   ar
    21    18    19   ar
    22    18    29   ar
    23    19    20   ar
    24    20    21   ar
    25    21    22    1
    26    21    28   ar
    27    22    23    1
    28    23    24    1
    29    24    25    1
    30    25    26    1
    31    25    27    1
    32    28    29   ar
    33     1    31    1
    34     1    32    1
    35     1    33    1
    36     2    34    1
    37     2    35    1
    38     3    36    1
    39     5    37    1
    40     6    38    1
    41     7    39    1
    42     8    40    1
    43     9    41    1
    44    10    42    1
    45    12    43    1
    46    13    44    1
    47    16    45    1
    48    17    46    1
    49    19    47    1
    50    20    48    1
    51    23    49    1
    52    23    50    1
    53    24    51    1
    54    24    52    1
    55    26    53    1
    56    26    54    1
    57    26    55    1
    58    27    56    1
    59    27    57    1
    60    27    58    1
    61    28    59    1
    62    29    60    1
