HMD.pdb
  rDOCK(R)          3D
libRbt.so/2013.1/901 2013/11/27
 24 26  0  0  0  0  0  0  0  0999 V2000
    0.6993   25.0345    7.7119 Br  0  0  0  0  0  0
    0.2916   30.1449    6.1647 O   0  0  0  0  0  0
   -5.0457   30.1899   11.1886 O   0  0  0  0  0  0
    0.1659   27.7343    7.3877 N   0  0  0  0  0  0
   -0.8527   31.2112    7.8375 N   0  0  0  0  0  0
   -5.0356   28.0918   12.1312 N   0  0  0  0  0  0
   -3.4498   27.1268   10.8679 N   0  0  0  0  0  0
   -4.4456   25.8464   12.5338 N   0  0  0  0  0  0
   -0.2366   26.6089    7.9818 C   0  0  0  0  0  0
   -1.3447   26.8239    8.7475 C   0  0  0  0  0  0
   -1.6495   28.2064    8.6277 C   0  0  0  0  0  0
   -0.6607   28.7407    7.7450 C   0  0  0  0  0  0
   -0.3796   30.0772    7.2029 C   0  0  0  0  0  0
   -1.6589   31.3017    9.0668 C   0  0  0  0  0  0
   -2.9390   30.4877    9.0105 C   0  0  0  0  0  0
   -2.7307   29.0210    9.3771 C   0  0  0  0  0  0
   -3.5076   28.4436   10.3872 C   0  0  0  0  0  0
   -4.6062   29.0315   11.2553 C   0  0  0  0  0  0
   -4.3249   26.9861   11.8805 C   0  0  0  0  0  0
    0.9406   27.8173    6.7859 H   0  0  0  0  0  0
   -0.6207   32.0685    7.4129 H   0  0  0  0  0  0
   -2.8620   26.4180   10.5196 H   0  0  0  0  0  0
   -5.0932   25.7679   13.2712 H   0  0  0  0  0  0
   -3.8882   25.0743   12.2839 H   0  0  0  0  0  0
  1  9  1  0  0  0
  2 13  2  0  0  0
  3 18  2  0  0  0
  4  9  1  0  0  0
  4 12  1  0  0  0
  4 20  1  0  0  0
  5 13  1  0  0  0
  5 14  1  0  0  0
  5 21  1  0  0  0
  6 18  1  0  0  0
  6 19  2  0  0  0
  7 17  1  0  0  0
  7 19  1  0  0  0
  7 22  1  0  0  0
  8 19  1  0  0  0
  8 23  1  0  0  0
  8 24  1  0  0  0
  9 10  2  0  0  0
 10 11  1  0  0  0
 11 12  2  0  0  0
 11 16  1  0  0  0
 12 13  1  0  0  0
 14 15  1  0  0  0
 15 16  1  0  0  0
 16 17  2  0  0  0
 17 18  1  0  0  0
M  END
>  <CHROM.0>
-149.18404619,11.12822558,-147.39534238,103.19475848,155.89128144,-61.11066012

>  <CHROM.1>
-1.61009122,27.79326538,9.00003923,0.20793775,-0.72625376,2.86133571

>  <FORMUL>
      HMD    C11 H10 Br1 N5 O2

>  <HET>
 HMD  A 400      19

>  <HETNAM>
     HMD 4-(5-AMINO-4-OXO-4H-PYRAZOL-3-YL)-2-BROMO-4,5,6,7-TETRA
   2 HMD HYDRO-3AH-PYRROLO[2,3-C]AZEPIN-8-ONE

>  <HETSYN>
     HMD HYMENIALDISINE

>  <Name>
HMD.pdb

>  <RI>
3.48049e+07

>  <Rbt.Current_Directory>
/home/malgorzata/Desktop/rDOCK_IFD/Wyniki/2c_CDK2

>  <Rbt.Executable>
rbdock ($Id: //depot/dev/client3/rdock/2013.1/src/exe/rbdock.cxx#4 $)

>  <Rbt.Library>
libRbt.so (2013.1, Build901 2013/11/27)

>  <Rbt.Parameter_File>
/home/malgorzata/Desktop/rDock_2013.1_src/data/scripts/soft_docking.prm

>  <Rbt.Receptor>
cavity.prm

>  <SCORE>
-23.4723

>  <SCORE.INTER>
-24.5617

>  <SCORE.INTER.CONST>
1

>  <SCORE.INTER.POLAR>
-1.25122

>  <SCORE.INTER.REPUL>
0

>  <SCORE.INTER.ROT>
0

>  <SCORE.INTER.VDW>
-25.7076

>  <SCORE.INTER.norm>
-1.29272

>  <SCORE.INTRA>
0

>  <SCORE.INTRA.DIHEDRAL>
0

>  <SCORE.INTRA.DIHEDRAL.0>
0

>  <SCORE.INTRA.POLAR>
0

>  <SCORE.INTRA.POLAR.0>
0

>  <SCORE.INTRA.REPUL>
0

>  <SCORE.INTRA.REPUL.0>
0

>  <SCORE.INTRA.VDW>
0

>  <SCORE.INTRA.VDW.0>
0

>  <SCORE.INTRA.norm>
0

>  <SCORE.RESTR>
0

>  <SCORE.RESTR.CAVITY>
0

>  <SCORE.RESTR.norm>
0

>  <SCORE.SYSTEM>
1.08945

>  <SCORE.SYSTEM.CONST>
0

>  <SCORE.SYSTEM.DIHEDRAL>
2.02039

>  <SCORE.SYSTEM.POLAR>
-0.619677

>  <SCORE.SYSTEM.REPUL>
0.8

>  <SCORE.SYSTEM.VDW>
-1.81384

>  <SCORE.SYSTEM.norm>
0.0573396

>  <SCORE.heavy>
19

>  <SCORE.norm>
-1.23538

$$$$
HMD.pdb
  rDOCK(R)          3D
libRbt.so/2013.1/901 2013/11/27
 24 26  0  0  0  0  0  0  0  0999 V2000
   -1.4933   24.7429    8.7043 Br  0  0  0  0  0  0
    3.1931   22.2895    7.8707 O   0  0  0  0  0  0
    5.1153   28.9543    5.5010 O   0  0  0  0  0  0
    1.1338   24.0115    8.2130 N   0  0  0  0  0  0
    4.7469   23.9623    7.6917 N   0  0  0  0  0  0
    3.2790   30.2954    5.8478 N   0  0  0  0  0  0
    1.8355   28.7550    6.6126 N   0  0  0  0  0  0
    1.0976   30.9538    6.4476 N   0  0  0  0  0  0
    0.2323   24.9867    8.0799 C   0  0  0  0  0  0
    0.7736   26.0793    7.4686 C   0  0  0  0  0  0
    2.1335   25.7585    7.2106 C   0  0  0  0  0  0
    2.3112   24.4270    7.6982 C   0  0  0  0  0  0
    3.4466   23.4962    7.7586 C   0  0  0  0  0  0
    5.2139   25.3527    7.5571 C   0  0  0  0  0  0
    4.6216   26.0753    6.3607 C   0  0  0  0  0  0
    3.2462   26.6726    6.6445 C   0  0  0  0  0  0
    3.0187   28.0314    6.4012 C   0  0  0  0  0  0
    3.9395   29.1130    5.8642 C   0  0  0  0  0  0
    2.0460   30.0480    6.3050 C   0  0  0  0  0  0
    0.9672   23.1310    8.6207 H   0  0  0  0  0  0
    5.4513   23.2763    7.7402 H   0  0  0  0  0  0
    0.9857   28.3766    6.9350 H   0  0  0  0  0  0
    1.2757   31.8938    6.2157 H   0  0  0  0  0  0
    0.2116   30.6896    6.7860 H   0  0  0  0  0  0
  1  9  1  0  0  0
  2 13  2  0  0  0
  3 18  2  0  0  0
  4  9  1  0  0  0
  4 12  1  0  0  0
  4 20  1  0  0  0
  5 13  1  0  0  0
  5 14  1  0  0  0
  5 21  1  0  0  0
  6 18  1  0  0  0
  6 19  2  0  0  0
  7 17  1  0  0  0
  7 19  1  0  0  0
  7 22  1  0  0  0
  8 19  1  0  0  0
  8 23  1  0  0  0
  8 24  1  0  0  0
  9 10  2  0  0  0
 10 11  1  0  0  0
 11 12  2  0  0  0
 11 16  1  0  0  0
 12 13  1  0  0  0
 14 15  1  0  0  0
 15 16  1  0  0  0
 16 17  2  0  0  0
 17 18  1  0  0  0
M  END
>  <CHROM.0>
138.43507971,-152.82948853,-67.10948875,-144.63237422,-173.21506294,-61.11066012

>  <CHROM.1>
1.80386044,26.16686695,7.39892871,2.23437718,-0.24173222,2.85615476

>  <FORMUL>
      HMD    C11 H10 Br1 N5 O2

>  <HET>
 HMD  A 400      19

>  <HETNAM>
     HMD 4-(5-AMINO-4-OXO-4H-PYRAZOL-3-YL)-2-BROMO-4,5,6,7-TETRA
   2 HMD HYDRO-3AH-PYRROLO[2,3-C]AZEPIN-8-ONE

>  <HETSYN>
     HMD HYMENIALDISINE

>  <Name>
HMD.pdb

>  <RI>
3.48049e+07

>  <Rbt.Current_Directory>
/home/malgorzata/Desktop/rDOCK_IFD/Wyniki/2c_CDK2

>  <Rbt.Executable>
rbdock ($Id: //depot/dev/client3/rdock/2013.1/src/exe/rbdock.cxx#4 $)

>  <Rbt.Library>
libRbt.so (2013.1, Build901 2013/11/27)

>  <Rbt.Parameter_File>
/home/malgorzata/Desktop/rDock_2013.1_src/data/scripts/soft_docking.prm

>  <Rbt.Receptor>
cavity.prm

>  <SCORE>
-21.7257

>  <SCORE.INTER>
-22.5135

>  <SCORE.INTER.CONST>
1

>  <SCORE.INTER.POLAR>
-0.741484

>  <SCORE.INTER.REPUL>
0

>  <SCORE.INTER.ROT>
0

>  <SCORE.INTER.VDW>
-25.3924

>  <SCORE.INTER.norm>
-1.18492

>  <SCORE.INTRA>
0

>  <SCORE.INTRA.DIHEDRAL>
0

>  <SCORE.INTRA.DIHEDRAL.0>
0

>  <SCORE.INTRA.POLAR>
0

>  <SCORE.INTRA.POLAR.0>
0

>  <SCORE.INTRA.REPUL>
0

>  <SCORE.INTRA.REPUL.0>
0

>  <SCORE.INTRA.VDW>
0

>  <SCORE.INTRA.VDW.0>
0

>  <SCORE.INTRA.norm>
0

>  <SCORE.RESTR>
0

>  <SCORE.RESTR.CAVITY>
0

>  <SCORE.RESTR.norm>
0

>  <SCORE.SYSTEM>
0.787758

>  <SCORE.SYSTEM.CONST>
0

>  <SCORE.SYSTEM.DIHEDRAL>
2.03516

>  <SCORE.SYSTEM.POLAR>
-0.562331

>  <SCORE.SYSTEM.REPUL>
0.8

>  <SCORE.SYSTEM.VDW>
-2.31789

>  <SCORE.SYSTEM.norm>
0.0414609

>  <SCORE.heavy>
19

>  <SCORE.norm>
-1.14346

$$$$
HMD.pdb
  rDOCK(R)          3D
libRbt.so/2013.1/901 2013/11/27
 24 26  0  0  0  0  0  0  0  0999 V2000
    0.1137   25.4184    7.9668 Br  0  0  0  0  0  0
    0.1112   30.6776    6.9587 O   0  0  0  0  0  0
   -5.3430   30.5930   11.8550 O   0  0  0  0  0  0
   -0.2180   28.1690    7.9184 N   0  0  0  0  0  0
   -0.9994   31.6458    8.7119 N   0  0  0  0  0  0
   -5.5070   28.4135   12.5715 N   0  0  0  0  0  0
   -3.9601   27.4709   11.2446 N   0  0  0  0  0  0
   -5.0888   26.1013   12.7468 N   0  0  0  0  0  0
   -0.7152   27.0206    8.3828 C   0  0  0  0  0  0
   -1.8255   27.2358    9.1452 C   0  0  0  0  0  0
   -2.0281   28.6419    9.1658 C   0  0  0  0  0  0
   -0.9806   29.1909    8.3636 C   0  0  0  0  0  0
   -0.5909   30.5521    7.9707 C   0  0  0  0  0  0
   -1.8300   31.6674    9.9281 C   0  0  0  0  0  0
   -3.1625   30.9596    9.7616 C   0  0  0  0  0  0
   -3.0687   29.4516    9.9757 C   0  0  0  0  0  0
   -3.9116   28.8311   10.9042 C   0  0  0  0  0  0
   -4.9886   29.4048   11.8079 C   0  0  0  0  0  0
   -4.8700   27.2906   12.2196 C   0  0  0  0  0  0
    0.5765   28.2569    7.3438 H   0  0  0  0  0  0
   -0.6958   32.5232    8.3845 H   0  0  0  0  0  0
   -3.4149   26.7609   10.8350 H   0  0  0  0  0  0
   -5.7599   25.9945   13.4591 H   0  0  0  0  0  0
   -4.5810   25.3205   12.4278 H   0  0  0  0  0  0
  1  9  1  0  0  0
  2 13  2  0  0  0
  3 18  2  0  0  0
  4  9  1  0  0  0
  4 12  1  0  0  0
  4 20  1  0  0  0
  5 13  1  0  0  0
  5 14  1  0  0  0
  5 21  1  0  0  0
  6 18  1  0  0  0
  6 19  2  0  0  0
  7 17  1  0  0  0
  7 19  1  0  0  0
  7 22  1  0  0  0
  8 19  1  0  0  0
  8 23  1  0  0  0
  8 24  1  0  0  0
  9 10  2  0  0  0
 10 11  1  0  0  0
 11 12  2  0  0  0
 11 16  1  0  0  0
 12 13  1  0  0  0
 14 15  1  0  0  0
 15 16  1  0  0  0
 16 17  2  0  0  0
 17 18  1  0  0  0
M  END
>  <CHROM.0>
98.38927330,147.38200853,156.47209420,-72.46464857,156.86609232,-61.11066012

>  <CHROM.1>
-2.02819718,28.19064616,9.49324994,0.30841242,-0.71744815,3.03254891

>  <FORMUL>
      HMD    C11 H10 Br1 N5 O2

>  <HET>
 HMD  A 400      19

>  <HETNAM>
     HMD 4-(5-AMINO-4-OXO-4H-PYRAZOL-3-YL)-2-BROMO-4,5,6,7-TETRA
   2 HMD HYDRO-3AH-PYRROLO[2,3-C]AZEPIN-8-ONE

>  <HETSYN>
     HMD HYMENIALDISINE

>  <Name>
HMD.pdb

>  <RI>
3.48049e+07

>  <Rbt.Current_Directory>
/home/malgorzata/Desktop/rDOCK_IFD/Wyniki/2c_CDK2

>  <Rbt.Executable>
rbdock ($Id: //depot/dev/client3/rdock/2013.1/src/exe/rbdock.cxx#4 $)

>  <Rbt.Library>
libRbt.so (2013.1, Build901 2013/11/27)

>  <Rbt.Parameter_File>
/home/malgorzata/Desktop/rDock_2013.1_src/data/scripts/soft_docking.prm

>  <Rbt.Receptor>
cavity.prm

>  <SCORE>
-25.3307

>  <SCORE.INTER>
-26.2641

>  <SCORE.INTER.CONST>
1

>  <SCORE.INTER.POLAR>
-1.15154

>  <SCORE.INTER.REPUL>
0

>  <SCORE.INTER.ROT>
0

>  <SCORE.INTER.VDW>
-27.7489

>  <SCORE.INTER.norm>
-1.38232

>  <SCORE.INTRA>
0

>  <SCORE.INTRA.DIHEDRAL>
0

>  <SCORE.INTRA.DIHEDRAL.0>
0

>  <SCORE.INTRA.POLAR>
0

>  <SCORE.INTRA.POLAR.0>
0

>  <SCORE.INTRA.REPUL>
0

>  <SCORE.INTRA.REPUL.0>
0

>  <SCORE.INTRA.VDW>
0

>  <SCORE.INTRA.VDW.0>
0

>  <SCORE.INTRA.norm>
0

>  <SCORE.RESTR>
0

>  <SCORE.RESTR.CAVITY>
0

>  <SCORE.RESTR.norm>
0

>  <SCORE.SYSTEM>
0.933435

>  <SCORE.SYSTEM.CONST>
0

>  <SCORE.SYSTEM.DIHEDRAL>
2.01923

>  <SCORE.SYSTEM.POLAR>
-0.619677

>  <SCORE.SYSTEM.REPUL>
0.8

>  <SCORE.SYSTEM.VDW>
-1.96928

>  <SCORE.SYSTEM.norm>
0.0491281

>  <SCORE.heavy>
19

>  <SCORE.norm>
-1.33319

$$$$
HMD.pdb
  rDOCK(R)          3D
libRbt.so/2013.1/901 2013/11/27
 24 26  0  0  0  0  0  0  0  0999 V2000
   -0.1612   24.6852    7.3965 Br  0  0  0  0  0  0
   -2.9337   24.4343   11.9710 O   0  0  0  0  0  0
   -3.1256   31.7075   11.0804 O   0  0  0  0  0  0
   -1.7341   25.1025    9.6392 N   0  0  0  0  0  0
   -4.0529   26.4259   12.1292 N   0  0  0  0  0  0
   -2.0733   32.1206    9.0772 N   0  0  0  0  0  0
   -1.4359   30.0314    8.5569 N   0  0  0  0  0  0
   -0.8987   31.7372    7.0709 N   0  0  0  0  0  0
   -1.0311   25.7019    8.6758 C   0  0  0  0  0  0
   -1.0803   27.0593    8.8005 C   0  0  0  0  0  0
   -1.8952   27.3260    9.9334 C   0  0  0  0  0  0
   -2.2817   26.0453   10.4362 C   0  0  0  0  0  0
   -3.1112   25.5885   11.5597 C   0  0  0  0  0  0
   -4.3833   27.8137   11.7624 C   0  0  0  0  0  0
   -3.1815   28.7411   11.7653 C   0  0  0  0  0  0
   -2.3875   28.6940   10.4630 C   0  0  0  0  0  0
   -2.1296   29.8798    9.7668 C   0  0  0  0  0  0
   -2.5086   31.3172   10.0771 C   0  0  0  0  0  0
   -1.4551   31.3273    8.1946 C   0  0  0  0  0  0
   -1.8369   24.1298    9.7508 H   0  0  0  0  0  0
   -4.5691   26.0455   12.8762 H   0  0  0  0  0  0
   -1.0034   29.3048    8.0527 H   0  0  0  0  0  0
   -0.9257   32.6908    6.8275 H   0  0  0  0  0  0
   -0.4564   31.0895    6.4758 H   0  0  0  0  0  0
  1  9  1  0  0  0
  2 13  2  0  0  0
  3 18  2  0  0  0
  4  9  1  0  0  0
  4 12  1  0  0  0
  4 20  1  0  0  0
  5 13  1  0  0  0
  5 14  1  0  0  0
  5 21  1  0  0  0
  6 18  1  0  0  0
  6 19  2  0  0  0
  7 17  1  0  0  0
  7 19  1  0  0  0
  7 22  1  0  0  0
  8 19  1  0  0  0
  8 23  1  0  0  0
  8 24  1  0  0  0
  9 10  2  0  0  0
 10 11  1  0  0  0
 11 12  2  0  0  0
 11 16  1  0  0  0
 12 13  1  0  0  0
 14 15  1  0  0  0
 15 16  1  0  0  0
 16 17  2  0  0  0
 17 18  1  0  0  0
M  END
>  <CHROM.0>
47.18810064,139.66964202,148.63541385,-101.54561414,138.58750500,-61.11066012

>  <CHROM.1>
-1.79998917,27.49000522,9.40908671,-1.14710713,0.95628837,-0.14131487

>  <FORMUL>
      HMD    C11 H10 Br1 N5 O2

>  <HET>
 HMD  A 400      19

>  <HETNAM>
     HMD 4-(5-AMINO-4-OXO-4H-PYRAZOL-3-YL)-2-BROMO-4,5,6,7-TETRA
   2 HMD HYDRO-3AH-PYRROLO[2,3-C]AZEPIN-8-ONE

>  <HETSYN>
     HMD HYMENIALDISINE

>  <Name>
HMD.pdb

>  <RI>
3.48049e+07

>  <Rbt.Current_Directory>
/home/malgorzata/Desktop/rDOCK_IFD/Wyniki/2c_CDK2

>  <Rbt.Executable>
rbdock ($Id: //depot/dev/client3/rdock/2013.1/src/exe/rbdock.cxx#4 $)

>  <Rbt.Library>
libRbt.so (2013.1, Build901 2013/11/27)

>  <Rbt.Parameter_File>
/home/malgorzata/Desktop/rDock_2013.1_src/data/scripts/soft_docking.prm

>  <Rbt.Receptor>
cavity.prm

>  <SCORE>
-23.9094

>  <SCORE.INTER>
-25.0066

>  <SCORE.INTER.CONST>
1

>  <SCORE.INTER.POLAR>
-1.30562

>  <SCORE.INTER.REPUL>
0

>  <SCORE.INTER.ROT>
0

>  <SCORE.INTER.VDW>
-25.9675

>  <SCORE.INTER.norm>
-1.31614

>  <SCORE.INTRA>
0

>  <SCORE.INTRA.DIHEDRAL>
0

>  <SCORE.INTRA.DIHEDRAL.0>
0

>  <SCORE.INTRA.POLAR>
0

>  <SCORE.INTRA.POLAR.0>
0

>  <SCORE.INTRA.REPUL>
0

>  <SCORE.INTRA.REPUL.0>
0

>  <SCORE.INTRA.VDW>
0

>  <SCORE.INTRA.VDW.0>
0

>  <SCORE.INTRA.norm>
0

>  <SCORE.RESTR>
0

>  <SCORE.RESTR.CAVITY>
0

>  <SCORE.RESTR.norm>
0

>  <SCORE.SYSTEM>
1.09716

>  <SCORE.SYSTEM.CONST>
0

>  <SCORE.SYSTEM.DIHEDRAL>
2.02419

>  <SCORE.SYSTEM.POLAR>
-0.619677

>  <SCORE.SYSTEM.REPUL>
0.8

>  <SCORE.SYSTEM.VDW>
-1.80804

>  <SCORE.SYSTEM.norm>
0.0577452

>  <SCORE.heavy>
19

>  <SCORE.norm>
-1.25839

$$$$
HMD.pdb
  rDOCK(R)          3D
libRbt.so/2013.1/901 2013/11/27
 24 26  0  0  0  0  0  0  0  0999 V2000
    1.0993   32.3505    8.0193 Br  0  0  0  0  0  0
   -2.3016   28.5704    6.3398 O   0  0  0  0  0  0
   -5.8926   30.5166   12.4264 O   0  0  0  0  0  0
   -1.0161   30.6252    7.5430 N   0  0  0  0  0  0
   -4.2677   28.9680    7.4448 N   0  0  0  0  0  0
   -4.6890   32.2535   13.3346 N   0  0  0  0  0  0
   -2.9675   32.3034   11.8939 N   0  0  0  0  0  0
   -2.9816   33.8502   13.6298 N   0  0  0  0  0  0
   -0.4791   31.4717    8.4242 C   0  0  0  0  0  0
   -1.2404   31.5585    9.5527 C   0  0  0  0  0  0
   -2.3538   30.6997    9.3489 C   0  0  0  0  0  0
   -2.1605   30.1235    8.0556 C   0  0  0  0  0  0
   -2.9173   29.1733    7.2287 C   0  0  0  0  0  0
   -5.1386   29.5978    8.4519 C   0  0  0  0  0  0
   -4.6265   29.4452    9.8728 C   0  0  0  0  0  0
   -3.5944   30.5032   10.2526 C   0  0  0  0  0  0
   -3.7916   31.2820   11.3980 C   0  0  0  0  0  0
   -4.9141   31.2795   12.4207 C   0  0  0  0  0  0
   -3.5389   32.8423   12.9866 C   0  0  0  0  0  0
   -0.6388   30.4024    6.6615 H   0  0  0  0  0  0
   -4.7031   28.3170    6.8484 H   0  0  0  0  0  0
   -2.1074   32.5817   11.5042 H   0  0  0  0  0  0
   -3.4190   34.2276   14.4271 H   0  0  0  0  0  0
   -2.1283   34.2250   13.3126 H   0  0  0  0  0  0
  1  9  1  0  0  0
  2 13  2  0  0  0
  3 18  2  0  0  0
  4  9  1  0  0  0
  4 12  1  0  0  0
  4 20  1  0  0  0
  5 13  1  0  0  0
  5 14  1  0  0  0
  5 21  1  0  0  0
  6 18  1  0  0  0
  6 19  2  0  0  0
  7 17  1  0  0  0
  7 19  1  0  0  0
  7 22  1  0  0  0
  8 19  1  0  0  0
  8 23  1  0  0  0
  8 24  1  0  0  0
  9 10  2  0  0  0
 10 11  1  0  0  0
 11 12  2  0  0  0
 11 16  1  0  0  0
 12 13  1  0  0  0
 14 15  1  0  0  0
 15 16  1  0  0  0
 16 17  2  0  0  0
 17 18  1  0  0  0
M  END
>  <CHROM.0>
-68.88635589,-14.20099329,138.27199542,-157.90842972,134.62675898,-61.11066012

>  <CHROM.1>
-2.21439493,31.20486303,9.53941669,-0.59649223,0.48837769,0.97193890

>  <FORMUL>
      HMD    C11 H10 Br1 N5 O2

>  <HET>
 HMD  A 400      19

>  <HETNAM>
     HMD 4-(5-AMINO-4-OXO-4H-PYRAZOL-3-YL)-2-BROMO-4,5,6,7-TETRA
   2 HMD HYDRO-3AH-PYRROLO[2,3-C]AZEPIN-8-ONE

>  <HETSYN>
     HMD HYMENIALDISINE

>  <Name>
HMD.pdb

>  <RI>
3.48049e+07

>  <Rbt.Current_Directory>
/home/malgorzata/Desktop/rDOCK_IFD/Wyniki/2c_CDK2

>  <Rbt.Executable>
rbdock ($Id: //depot/dev/client3/rdock/2013.1/src/exe/rbdock.cxx#4 $)

>  <Rbt.Library>
libRbt.so (2013.1, Build901 2013/11/27)

>  <Rbt.Parameter_File>
/home/malgorzata/Desktop/rDock_2013.1_src/data/scripts/soft_docking.prm

>  <Rbt.Receptor>
cavity.prm

>  <SCORE>
-26.4043

>  <SCORE.INTER>
-27.555

>  <SCORE.INTER.CONST>
1

>  <SCORE.INTER.POLAR>
-0.511072

>  <SCORE.INTER.REPUL>
0

>  <SCORE.INTER.ROT>
0

>  <SCORE.INTER.VDW>
-31.2173

>  <SCORE.INTER.norm>
-1.45026

>  <SCORE.INTRA>
0

>  <SCORE.INTRA.DIHEDRAL>
0

>  <SCORE.INTRA.DIHEDRAL.0>
0

>  <SCORE.INTRA.POLAR>
0

>  <SCORE.INTRA.POLAR.0>
0

>  <SCORE.INTRA.REPUL>
0

>  <SCORE.INTRA.REPUL.0>
0

>  <SCORE.INTRA.VDW>
0

>  <SCORE.INTRA.VDW.0>
0

>  <SCORE.INTRA.norm>
0

>  <SCORE.RESTR>
0.128821

>  <SCORE.RESTR.CAVITY>
0.128821

>  <SCORE.RESTR.norm>
0.00678006

>  <SCORE.SYSTEM>
1.0218

>  <SCORE.SYSTEM.CONST>
0

>  <SCORE.SYSTEM.DIHEDRAL>
2.03082

>  <SCORE.SYSTEM.POLAR>
-0.610373

>  <SCORE.SYSTEM.REPUL>
0.8

>  <SCORE.SYSTEM.VDW>
-1.91834

>  <SCORE.SYSTEM.norm>
0.0537791

>  <SCORE.heavy>
19

>  <SCORE.norm>
-1.3897

$$$$
HMD.pdb
  rDOCK(R)          3D
libRbt.so/2013.1/901 2013/11/27
 24 26  0  0  0  0  0  0  0  0999 V2000
   -3.4545   34.2355   12.9334 Br  0  0  0  0  0  0
   -5.9943   29.5635   12.3032 O   0  0  0  0  0  0
   -1.2425   28.8763    6.7644 O   0  0  0  0  0  0
   -4.3227   31.6911   12.2624 N   0  0  0  0  0  0
   -4.6011   28.2656   11.0307 N   0  0  0  0  0  0
    0.0966   30.7443    6.8534 N   0  0  0  0  0  0
   -0.9021   31.8348    8.5431 N   0  0  0  0  0  0
    0.9534   32.8252    7.5518 N   0  0  0  0  0  0
   -3.5300   32.7018   11.8995 C   0  0  0  0  0  0
   -2.8559   32.4121   10.7496 C   0  0  0  0  0  0
   -3.2562   31.1020   10.3725 C   0  0  0  0  0  0
   -4.1968   30.6890   11.3658 C   0  0  0  0  0  0
   -4.9841   29.4693   11.5936 C   0  0  0  0  0  0
   -3.4390   27.9877   10.1695 C   0  0  0  0  0  0
   -3.3718   28.8770    8.9411 C   0  0  0  0  0  0
   -2.7159   30.2271    9.2162 C   0  0  0  0  0  0
   -1.6355   30.6440    8.4312 C   0  0  0  0  0  0
   -0.9346   29.9688    7.2655 C   0  0  0  0  0  0
    0.0914   31.8301    7.6354 C   0  0  0  0  0  0
   -4.9053   31.6782   13.0559 H   0  0  0  0  0  0
   -5.1798   27.4950   11.2317 H   0  0  0  0  0  0
   -1.0853   32.5591    9.1842 H   0  0  0  0  0  0
    1.6718   32.7989    6.8792 H   0  0  0  0  0  0
    0.8782   33.5941    8.1620 H   0  0  0  0  0  0
  1  9  1  0  0  0
  2 13  2  0  0  0
  3 18  2  0  0  0
  4  9  1  0  0  0
  4 12  1  0  0  0
  4 20  1  0  0  0
  5 13  1  0  0  0
  5 14  1  0  0  0
  5 21  1  0  0  0
  6 18  1  0  0  0
  6 19  2  0  0  0
  7 17  1  0  0  0
  7 19  1  0  0  0
  7 22  1  0  0  0
  8 19  1  0  0  0
  8 23  1  0  0  0
  8 24  1  0  0  0
  9 10  2  0  0  0
 10 11  1  0  0  0
 11 12  2  0  0  0
 11 16  1  0  0  0
 12 13  1  0  0  0
 14 15  1  0  0  0
 15 16  1  0  0  0
 16 17  2  0  0  0
 17 18  1  0  0  0
M  END
>  <CHROM.0>
-6.34882822,153.03724096,164.10848518,164.61094404,156.71379754,-61.11066012

>  <CHROM.1>
-2.80840696,31.43097575,10.41940506,-2.25011107,-0.75199171,-2.58575261

>  <FORMUL>
      HMD    C11 H10 Br1 N5 O2

>  <HET>
 HMD  A 400      19

>  <HETNAM>
     HMD 4-(5-AMINO-4-OXO-4H-PYRAZOL-3-YL)-2-BROMO-4,5,6,7-TETRA
   2 HMD HYDRO-3AH-PYRROLO[2,3-C]AZEPIN-8-ONE

>  <HETSYN>
     HMD HYMENIALDISINE

>  <Name>
HMD.pdb

>  <RI>
3.48049e+07

>  <Rbt.Current_Directory>
/home/malgorzata/Desktop/rDOCK_IFD/Wyniki/2c_CDK2

>  <Rbt.Executable>
rbdock ($Id: //depot/dev/client3/rdock/2013.1/src/exe/rbdock.cxx#4 $)

>  <Rbt.Library>
libRbt.so (2013.1, Build901 2013/11/27)

>  <Rbt.Parameter_File>
/home/malgorzata/Desktop/rDock_2013.1_src/data/scripts/soft_docking.prm

>  <Rbt.Receptor>
cavity.prm

>  <SCORE>
-30.2406

>  <SCORE.INTER>
-31.2592

>  <SCORE.INTER.CONST>
1

>  <SCORE.INTER.POLAR>
-1.05792

>  <SCORE.INTER.REPUL>
0

>  <SCORE.INTER.ROT>
0

>  <SCORE.INTER.VDW>
-33.0622

>  <SCORE.INTER.norm>
-1.64522

>  <SCORE.INTRA>
0

>  <SCORE.INTRA.DIHEDRAL>
0

>  <SCORE.INTRA.DIHEDRAL.0>
0

>  <SCORE.INTRA.POLAR>
0

>  <SCORE.INTRA.POLAR.0>
0

>  <SCORE.INTRA.REPUL>
0

>  <SCORE.INTRA.REPUL.0>
0

>  <SCORE.INTRA.VDW>
0

>  <SCORE.INTRA.VDW.0>
0

>  <SCORE.INTRA.norm>
0

>  <SCORE.RESTR>
0

>  <SCORE.RESTR.CAVITY>
0

>  <SCORE.RESTR.norm>
0

>  <SCORE.SYSTEM>
1.01863

>  <SCORE.SYSTEM.CONST>
0

>  <SCORE.SYSTEM.DIHEDRAL>
2.02081

>  <SCORE.SYSTEM.POLAR>
-0.619677

>  <SCORE.SYSTEM.REPUL>
0.8

>  <SCORE.SYSTEM.VDW>
-1.88487

>  <SCORE.SYSTEM.norm>
0.0536122

>  <SCORE.heavy>
19

>  <SCORE.norm>
-1.59161

$$$$
HMD.pdb
  rDOCK(R)          3D
libRbt.so/2013.1/901 2013/11/27
 24 26  0  0  0  0  0  0  0  0999 V2000
   -5.4628   32.9345   14.1184 Br  0  0  0  0  0  0
   -1.9974   32.5290   10.0560 O   0  0  0  0  0  0
   -3.7006   25.4230   10.6337 O   0  0  0  0  0  0
   -3.8909   32.1938   11.9600 N   0  0  0  0  0  0
   -2.4211   30.5021    9.0779 N   0  0  0  0  0  0
   -5.3025   25.2953   12.2793 N   0  0  0  0  0  0
   -5.3613   27.4507   12.9060 N   0  0  0  0  0  0
   -6.7809   25.9613   13.9889 N   0  0  0  0  0  0
   -4.6434   31.7406   12.9649 C   0  0  0  0  0  0
   -4.6913   30.3775   12.9700 C   0  0  0  0  0  0
   -3.9098   29.9473   11.8642 C   0  0  0  0  0  0
   -3.4164   31.1430   11.2567 C   0  0  0  0  0  0
   -2.5685   31.4311   10.0917 C   0  0  0  0  0  0
   -3.0242   29.1627    8.9705 C   0  0  0  0  0  0
   -2.7450   28.2769   10.1712 C   0  0  0  0  0  0
   -3.7170   28.5101   11.3243 C   0  0  0  0  0  0
   -4.4228   27.4290   11.8633 C   0  0  0  0  0  0
   -4.4086   25.9538   11.5035 C   0  0  0  0  0  0
   -5.8520   26.2106   13.0861 C   0  0  0  0  0  0
   -3.7107   33.1414   11.7632 H   0  0  0  0  0  0
   -1.8378   30.7707    8.3318 H   0  0  0  0  0  0
   -5.6199   28.2470   13.4238 H   0  0  0  0  0  0
   -7.1242   25.0455   14.1021 H   0  0  0  0  0  0
   -7.1309   26.6910   14.5495 H   0  0  0  0  0  0
  1  9  1  0  0  0
  2 13  2  0  0  0
  3 18  2  0  0  0
  4  9  1  0  0  0
  4 12  1  0  0  0
  4 20  1  0  0  0
  5 13  1  0  0  0
  5 14  1  0  0  0
  5 21  1  0  0  0
  6 18  1  0  0  0
  6 19  2  0  0  0
  7 17  1  0  0  0
  7 19  1  0  0  0
  7 22  1  0  0  0
  8 19  1  0  0  0
  8 23  1  0  0  0
  8 24  1  0  0  0
  9 10  2  0  0  0
 10 11  1  0  0  0
 11 12  2  0  0  0
 11 16  1  0  0  0
 12 13  1  0  0  0
 14 15  1  0  0  0
 15 16  1  0  0  0
 16 17  2  0  0  0
 17 18  1  0  0  0
M  END
>  <CHROM.0>
-27.55738528,159.18734385,178.73107591,135.21591876,-128.05065492,-61.11066012

>  <CHROM.1>
-4.39217307,29.85329257,12.12766124,1.59156532,0.90535346,0.21043632

>  <FORMUL>
      HMD    C11 H10 Br1 N5 O2

>  <HET>
 HMD  A 400      19

>  <HETNAM>
     HMD 4-(5-AMINO-4-OXO-4H-PYRAZOL-3-YL)-2-BROMO-4,5,6,7-TETRA
   2 HMD HYDRO-3AH-PYRROLO[2,3-C]AZEPIN-8-ONE

>  <HETSYN>
     HMD HYMENIALDISINE

>  <Name>
HMD.pdb

>  <RI>
3.48049e+07

>  <Rbt.Current_Directory>
/home/malgorzata/Desktop/rDOCK_IFD/Wyniki/2c_CDK2

>  <Rbt.Executable>
rbdock ($Id: //depot/dev/client3/rdock/2013.1/src/exe/rbdock.cxx#4 $)

>  <Rbt.Library>
libRbt.so (2013.1, Build901 2013/11/27)

>  <Rbt.Parameter_File>
/home/malgorzata/Desktop/rDock_2013.1_src/data/scripts/soft_docking.prm

>  <Rbt.Receptor>
cavity.prm

>  <SCORE>
-26.2301

>  <SCORE.INTER>
-28.4884

>  <SCORE.INTER.CONST>
1

>  <SCORE.INTER.POLAR>
-1.24519

>  <SCORE.INTER.REPUL>
0.0122183

>  <SCORE.INTER.ROT>
0

>  <SCORE.INTER.VDW>
-29.7158

>  <SCORE.INTER.norm>
-1.49939

>  <SCORE.INTRA>
0

>  <SCORE.INTRA.DIHEDRAL>
0

>  <SCORE.INTRA.DIHEDRAL.0>
0

>  <SCORE.INTRA.POLAR>
0

>  <SCORE.INTRA.POLAR.0>
0

>  <SCORE.INTRA.REPUL>
0

>  <SCORE.INTRA.REPUL.0>
0

>  <SCORE.INTRA.VDW>
0

>  <SCORE.INTRA.VDW.0>
0

>  <SCORE.INTRA.norm>
0

>  <SCORE.RESTR>
0.163148

>  <SCORE.RESTR.CAVITY>
0.163148

>  <SCORE.RESTR.norm>
0.00858673

>  <SCORE.SYSTEM>
2.0951

>  <SCORE.SYSTEM.CONST>
0

>  <SCORE.SYSTEM.DIHEDRAL>
2.02198

>  <SCORE.SYSTEM.POLAR>
-0.21715

>  <SCORE.SYSTEM.REPUL>
0.8

>  <SCORE.SYSTEM.VDW>
-2.17758

>  <SCORE.SYSTEM.norm>
0.110268

>  <SCORE.heavy>
19

>  <SCORE.norm>
-1.38053

$$$$
HMD.pdb
  rDOCK(R)          3D
libRbt.so/2013.1/901 2013/11/27
 24 26  0  0  0  0  0  0  0  0999 V2000
   -2.5315   34.7985   12.5344 Br  0  0  0  0  0  0
   -5.5471   30.3751   12.4107 O   0  0  0  0  0  0
   -1.1915   28.7778    6.7356 O   0  0  0  0  0  0
   -3.6798   32.3114   12.1171 N   0  0  0  0  0  0
   -4.3585   28.8468   11.1875 N   0  0  0  0  0  0
    0.3271   30.5006    6.6079 N   0  0  0  0  0  0
   -0.4673   31.8155    8.2455 N   0  0  0  0  0  0
    1.4200   32.5313    7.0914 N   0  0  0  0  0  0
   -2.8126   33.2046   11.6356 C   0  0  0  0  0  0
   -2.2332   32.7591   10.4840 C   0  0  0  0  0  0
   -2.7797   31.4713   10.2355 C   0  0  0  0  0  0
   -3.7013   31.2350   11.3017 C   0  0  0  0  0  0
   -4.5908   30.1234   11.6657 C   0  0  0  0  0  0
   -3.2774   28.3856   10.2998 C   0  0  0  0  0  0
   -3.1898   29.1650    9.0002 C   0  0  0  0  0  0
   -2.3909   30.4586    9.1321 C   0  0  0  0  0  0
   -1.3188   30.7007    8.2665 C   0  0  0  0  0  0
   -0.7514   29.8688    7.1298 C   0  0  0  0  0  0
    0.4704   31.6389    7.2967 C   0  0  0  0  0  0
   -4.2171   32.4199   12.9348 H   0  0  0  0  0  0
   -4.9982   28.1572   11.4780 H   0  0  0  0  0  0
   -0.5438   32.6024    8.8321 H   0  0  0  0  0  0
    2.0951   32.3796    6.3910 H   0  0  0  0  0  0
    1.4536   33.3490    7.6386 H   0  0  0  0  0  0
  1  9  1  0  0  0
  2 13  2  0  0  0
  3 18  2  0  0  0
  4  9  1  0  0  0
  4 12  1  0  0  0
  4 20  1  0  0  0
  5 13  1  0  0  0
  5 14  1  0  0  0
  5 21  1  0  0  0
  6 18  1  0  0  0
  6 19  2  0  0  0
  7 17  1  0  0  0
  7 19  1  0  0  0
  7 22  1  0  0  0
  8 19  1  0  0  0
  8 23  1  0  0  0
  8 24  1  0  0  0
  9 10  2  0  0  0
 10 11  1  0  0  0
 11 12  2  0  0  0
 11 16  1  0  0  0
 12 13  1  0  0  0
 14 15  1  0  0  0
 15 16  1  0  0  0
 16 17  2  0  0  0
 17 18  1  0  0  0
M  END
>  <CHROM.0>
-85.49427768,-122.36255433,177.57582607,176.94947535,-163.65427411,-61.11066012

>  <CHROM.1>
-2.29994932,31.75553300,10.23436215,-2.09821342,-0.74034666,-2.56322183

>  <FORMUL>
      HMD    C11 H10 Br1 N5 O2

>  <HET>
 HMD  A 400      19

>  <HETNAM>
     HMD 4-(5-AMINO-4-OXO-4H-PYRAZOL-3-YL)-2-BROMO-4,5,6,7-TETRA
   2 HMD HYDRO-3AH-PYRROLO[2,3-C]AZEPIN-8-ONE

>  <HETSYN>
     HMD HYMENIALDISINE

>  <Name>
HMD.pdb

>  <RI>
3.48049e+07

>  <Rbt.Current_Directory>
/home/malgorzata/Desktop/rDOCK_IFD/Wyniki/2c_CDK2

>  <Rbt.Executable>
rbdock ($Id: //depot/dev/client3/rdock/2013.1/src/exe/rbdock.cxx#4 $)

>  <Rbt.Library>
libRbt.so (2013.1, Build901 2013/11/27)

>  <Rbt.Parameter_File>
/home/malgorzata/Desktop/rDock_2013.1_src/data/scripts/soft_docking.prm

>  <Rbt.Receptor>
cavity.prm

>  <SCORE>
-29.1068

>  <SCORE.INTER>
-30.327

>  <SCORE.INTER.CONST>
1

>  <SCORE.INTER.POLAR>
-0.155138

>  <SCORE.INTER.REPUL>
0

>  <SCORE.INTER.ROT>
0

>  <SCORE.INTER.VDW>
-35.1996

>  <SCORE.INTER.norm>
-1.59616

>  <SCORE.INTRA>
0

>  <SCORE.INTRA.DIHEDRAL>
0

>  <SCORE.INTRA.DIHEDRAL.0>
0

>  <SCORE.INTRA.POLAR>
0

>  <SCORE.INTRA.POLAR.0>
0

>  <SCORE.INTRA.REPUL>
0

>  <SCORE.INTRA.REPUL.0>
0

>  <SCORE.INTRA.VDW>
0

>  <SCORE.INTRA.VDW.0>
0

>  <SCORE.INTRA.norm>
0

>  <SCORE.RESTR>
0.180995

>  <SCORE.RESTR.CAVITY>
0.180995

>  <SCORE.RESTR.norm>
0.00952604

>  <SCORE.SYSTEM>
1.03923

>  <SCORE.SYSTEM.CONST>
0

>  <SCORE.SYSTEM.DIHEDRAL>
2.03259

>  <SCORE.SYSTEM.POLAR>
-0.512132

>  <SCORE.SYSTEM.REPUL>
0.8

>  <SCORE.SYSTEM.VDW>
-2.23582

>  <SCORE.SYSTEM.norm>
0.0546961

>  <SCORE.heavy>
19

>  <SCORE.norm>
-1.53194

$$$$
HMD.pdb
  rDOCK(R)          3D
libRbt.so/2013.1/901 2013/11/27
 24 26  0  0  0  0  0  0  0  0999 V2000
    0.4366   25.5086    8.1497 Br  0  0  0  0  0  0
    0.3648   30.7473    7.0419 O   0  0  0  0  0  0
   -5.2290   30.6475   11.7779 O   0  0  0  0  0  0
    0.0547   28.2509    8.0392 N   0  0  0  0  0  0
   -0.8151   31.7260    8.7433 N   0  0  0  0  0  0
   -5.3729   28.4788   12.5307 N   0  0  0  0  0  0
   -3.7701   27.5421   11.2676 N   0  0  0  0  0  0
   -4.9166   26.1788   12.7621 N   0  0  0  0  0  0
   -0.4342   27.1019    8.5107 C   0  0  0  0  0  0
   -1.5704   27.3096    9.2363 C   0  0  0  0  0  0
   -1.8000   28.7117    9.2241 C   0  0  0  0  0  0
   -0.7398   29.2659    8.4425 C   0  0  0  0  0  0
   -0.3644   30.6269    8.0352 C   0  0  0  0  0  0
   -1.6814   31.7540    9.9341 C   0  0  0  0  0  0
   -2.9949   31.0175    9.7423 C   0  0  0  0  0  0
   -2.8791   29.5158    9.9878 C   0  0  0  0  0  0
   -3.7371   28.8964   10.9029 C   0  0  0  0  0  0
   -4.8510   29.4657   11.7638 C   0  0  0  0  0  0
   -4.7048   27.3622   12.2189 C   0  0  0  0  0  0
    0.8641   28.3436    7.4865 H   0  0  0  0  0  0
   -0.5185   32.6029    8.4082 H   0  0  0  0  0  0
   -3.1998   26.8352   10.8877 H   0  0  0  0  0  0
   -5.6063   26.0722   13.4565 H   0  0  0  0  0  0
   -4.3850   25.4022   12.4730 H   0  0  0  0  0  0
  1  9  1  0  0  0
  2 13  2  0  0  0
  3 18  2  0  0  0
  4  9  1  0  0  0
  4 12  1  0  0  0
  4 20  1  0  0  0
  5 13  1  0  0  0
  5 14  1  0  0  0
  5 21  1  0  0  0
  6 18  1  0  0  0
  6 19  2  0  0  0
  7 17  1  0  0  0
  7 19  1  0  0  0
  7 22  1  0  0  0
  8 19  1  0  0  0
  8 23  1  0  0  0
  8 24  1  0  0  0
  9 10  2  0  0  0
 10 11  1  0  0  0
 11 12  2  0  0  0
 11 16  1  0  0  0
 12 13  1  0  0  0
 14 15  1  0  0  0
 15 16  1  0  0  0
 16 17  2  0  0  0
 17 18  1  0  0  0
M  END
>  <CHROM.0>
-40.36509949,79.86450237,-94.71092457,151.05599189,177.55235538,-61.11066012

>  <CHROM.1>
-1.80122073,28.26658428,9.55994962,0.28835909,-0.68595806,3.00082136

>  <FORMUL>
      HMD    C11 H10 Br1 N5 O2

>  <HET>
 HMD  A 400      19

>  <HETNAM>
     HMD 4-(5-AMINO-4-OXO-4H-PYRAZOL-3-YL)-2-BROMO-4,5,6,7-TETRA
   2 HMD HYDRO-3AH-PYRROLO[2,3-C]AZEPIN-8-ONE

>  <HETSYN>
     HMD HYMENIALDISINE

>  <Name>
HMD.pdb

>  <RI>
3.48049e+07

>  <Rbt.Current_Directory>
/home/malgorzata/Desktop/rDOCK_IFD/Wyniki/2c_CDK2

>  <Rbt.Executable>
rbdock ($Id: //depot/dev/client3/rdock/2013.1/src/exe/rbdock.cxx#4 $)

>  <Rbt.Library>
libRbt.so (2013.1, Build901 2013/11/27)

>  <Rbt.Parameter_File>
/home/malgorzata/Desktop/rDock_2013.1_src/data/scripts/soft_docking.prm

>  <Rbt.Receptor>
cavity.prm

>  <SCORE>
-24.6492

>  <SCORE.INTER>
-25.2909

>  <SCORE.INTER.CONST>
1

>  <SCORE.INTER.POLAR>
-1.15386

>  <SCORE.INTER.REPUL>
0

>  <SCORE.INTER.ROT>
0

>  <SCORE.INTER.VDW>
-26.7678

>  <SCORE.INTER.norm>
-1.3311

>  <SCORE.INTRA>
0

>  <SCORE.INTRA.DIHEDRAL>
0

>  <SCORE.INTRA.DIHEDRAL.0>
0

>  <SCORE.INTRA.POLAR>
0

>  <SCORE.INTRA.POLAR.0>
0

>  <SCORE.INTRA.REPUL>
0

>  <SCORE.INTRA.REPUL.0>
0

>  <SCORE.INTRA.VDW>
0

>  <SCORE.INTRA.VDW.0>
0

>  <SCORE.INTRA.norm>
0

>  <SCORE.RESTR>
0

>  <SCORE.RESTR.CAVITY>
0

>  <SCORE.RESTR.norm>
0

>  <SCORE.SYSTEM>
0.641715

>  <SCORE.SYSTEM.CONST>
0

>  <SCORE.SYSTEM.DIHEDRAL>
2.03093

>  <SCORE.SYSTEM.POLAR>
-0.609701

>  <SCORE.SYSTEM.REPUL>
0.8

>  <SCORE.SYSTEM.VDW>
-2.30076

>  <SCORE.SYSTEM.norm>
0.0337745

>  <SCORE.heavy>
19

>  <SCORE.norm>
-1.29733

$$$$
HMD.pdb
  rDOCK(R)          3D
libRbt.so/2013.1/901 2013/11/27
 24 26  0  0  0  0  0  0  0  0999 V2000
    0.0995   31.6819    7.3134 Br  0  0  0  0  0  0
   -2.3873   27.1050    8.5561 O   0  0  0  0  0  0
   -5.3115   31.2939   13.8127 O   0  0  0  0  0  0
   -1.5218   29.6543    8.2820 N   0  0  0  0  0  0
   -4.1770   27.7029    9.8540 N   0  0  0  0  0  0
   -4.4869   33.4114   13.4566 N   0  0  0  0  0  0
   -3.1053   32.9859   11.7385 N   0  0  0  0  0  0
   -3.2480   35.1760   12.5062 N   0  0  0  0  0  0
   -1.0944   30.9010    8.4932 C   0  0  0  0  0  0
   -1.6534   31.4305    9.6191 C   0  0  0  0  0  0
   -2.5123   30.4289   10.1462 C   0  0  0  0  0  0
   -2.3878   29.3140    9.2610 C   0  0  0  0  0  0
   -2.9867   27.9734    9.2039 C   0  0  0  0  0  0
   -5.0062   28.6150   10.6602 C   0  0  0  0  0  0
   -4.2442   29.2836   11.7901 C   0  0  0  0  0  0
   -3.4870   30.5311   11.3436 C   0  0  0  0  0  0
   -3.6943   31.7424   12.0124 C   0  0  0  0  0  0
   -4.5895   32.0875   13.1895 C   0  0  0  0  0  0
   -3.6118   33.9099   12.5756 C   0  0  0  0  0  0
   -1.2496   29.0759    7.5333 H   0  0  0  0  0  0
   -4.5135   26.7819    9.7666 H   0  0  0  0  0  0
   -2.4286   33.1556   11.0439 H   0  0  0  0  0  0
   -3.6326   35.8336   13.1298 H   0  0  0  0  0  0
   -2.5917   35.4633   11.8309 H   0  0  0  0  0  0
  1  9  1  0  0  0
  2 13  2  0  0  0
  3 18  2  0  0  0
  4  9  1  0  0  0
  4 12  1  0  0  0
  4 20  1  0  0  0
  5 13  1  0  0  0
  5 14  1  0  0  0
  5 21  1  0  0  0
  6 18  1  0  0  0
  6 19  2  0  0  0
  7 17  1  0  0  0
  7 19  1  0  0  0
  7 22  1  0  0  0
  8 19  1  0  0  0
  8 23  1  0  0  0
  8 24  1  0  0  0
  9 10  2  0  0  0
 10 11  1  0  0  0
 11 12  2  0  0  0
 11 16  1  0  0  0
 12 13  1  0  0  0
 14 15  1  0  0  0
 15 16  1  0  0  0
 16 17  2  0  0  0
 17 18  1  0  0  0
M  END
>  <CHROM.0>
-149.21174820,96.13601469,-98.43762373,75.50526800,148.88875416,-61.11066012

>  <CHROM.1>
-2.48451909,30.97530234,10.03859255,-0.57457299,0.80938304,0.44197424

>  <FORMUL>
      HMD    C11 H10 Br1 N5 O2

>  <HET>
 HMD  A 400      19

>  <HETNAM>
     HMD 4-(5-AMINO-4-OXO-4H-PYRAZOL-3-YL)-2-BROMO-4,5,6,7-TETRA
   2 HMD HYDRO-3AH-PYRROLO[2,3-C]AZEPIN-8-ONE

>  <HETSYN>
     HMD HYMENIALDISINE

>  <Name>
HMD.pdb

>  <RI>
3.48049e+07

>  <Rbt.Current_Directory>
/home/malgorzata/Desktop/rDOCK_IFD/Wyniki/2c_CDK2

>  <Rbt.Executable>
rbdock ($Id: //depot/dev/client3/rdock/2013.1/src/exe/rbdock.cxx#4 $)

>  <Rbt.Library>
libRbt.so (2013.1, Build901 2013/11/27)

>  <Rbt.Parameter_File>
/home/malgorzata/Desktop/rDock_2013.1_src/data/scripts/soft_docking.prm

>  <Rbt.Receptor>
cavity.prm

>  <SCORE>
-25.864

>  <SCORE.INTER>
-27.0601

>  <SCORE.INTER.CONST>
1

>  <SCORE.INTER.POLAR>
-0.519329

>  <SCORE.INTER.REPUL>
0

>  <SCORE.INTER.ROT>
0

>  <SCORE.INTER.VDW>
-30.6943

>  <SCORE.INTER.norm>
-1.42421

>  <SCORE.INTRA>
0

>  <SCORE.INTRA.DIHEDRAL>
0

>  <SCORE.INTRA.DIHEDRAL.0>
0

>  <SCORE.INTRA.POLAR>
0

>  <SCORE.INTRA.POLAR.0>
0

>  <SCORE.INTRA.REPUL>
0

>  <SCORE.INTRA.REPUL.0>
0

>  <SCORE.INTRA.VDW>
0

>  <SCORE.INTRA.VDW.0>
0

>  <SCORE.INTRA.norm>
0

>  <SCORE.RESTR>
0.333677

>  <SCORE.RESTR.CAVITY>
0.333677

>  <SCORE.RESTR.norm>
0.0175619

>  <SCORE.SYSTEM>
0.862359

>  <SCORE.SYSTEM.CONST>
0

>  <SCORE.SYSTEM.DIHEDRAL>
2.02822

>  <SCORE.SYSTEM.POLAR>
-0.619677

>  <SCORE.SYSTEM.REPUL>
0.8

>  <SCORE.SYSTEM.VDW>
-2.04485

>  <SCORE.SYSTEM.norm>
0.0453873

>  <SCORE.heavy>
19

>  <SCORE.norm>
-1.36126

$$$$
