RAL.pdb
  rDOCK(R)          3D
libRbt.so/2013.1/901 2013/11/27
 36 40  0  0  0  0  0  0  0  0999 V2000
   35.6975    0.3267   18.6896 C   0  0  0  0  0  0
   36.4929    1.4290   18.8691 C   0  0  0  0  0  0
   37.8175    1.3332   19.1929 C   0  0  0  0  0  0
   38.5103    2.5118   19.3152 O   0  0  0  0  0  0
   38.3988    0.0676   19.3314 C   0  0  0  0  0  0
   37.6071   -1.0336   19.1171 C   0  0  0  0  0  0
   37.9796   -2.6382   19.2508 S   0  0  0  0  0  0
   36.4731   -3.2680   18.8229 C   0  0  0  0  0  0
   36.1496   -4.7229   18.8443 C   0  0  0  0  0  0
   37.1520   -5.5565   18.3877 C   0  0  0  0  0  0
   36.9525   -6.9256   18.4609 C   0  0  0  0  0  0
   35.7707   -7.4576   18.9378 C   0  0  0  0  0  0
   35.6635   -8.8489   18.9773 O   0  0  0  0  0  0
   34.7900   -6.6252   19.4357 C   0  0  0  0  0  0
   35.0058   -5.2539   19.3737 C   0  0  0  0  0  0
   36.2255   -0.9042   18.7972 C   0  0  0  0  0  0
   35.5714   -2.1957   18.6564 C   0  0  0  0  0  0
   34.2225   -2.3170   18.3818 C   0  0  0  0  0  0
   33.4401   -1.4502   18.7914 O   0  0  0  0  0  0
   33.6630   -3.4462   17.6309 C   0  0  0  0  0  0
   34.3905   -4.0534   16.6272 C   0  0  0  0  0  0
   33.8874   -5.1088   15.8915 C   0  0  0  0  0  0
   32.5925   -5.5517   16.1554 C   0  0  0  0  0  0
   31.8571   -4.9560   17.1645 C   0  0  0  0  0  0
   32.3964   -3.9174   17.9048 C   0  0  0  0  0  0
   31.8884   -6.5557   15.5590 O   0  0  0  0  0  0
   31.4838   -7.6299   16.3940 C   0  0  0  0  0  0
   32.6822   -8.2661   17.0463 C   0  0  0  0  0  0
   32.7477   -9.0763   18.2474 N   0  0  0  0  0  0
   32.0981  -10.3757   17.9811 C   0  0  0  0  0  0
   32.2352  -11.3879   19.1363 C   0  0  0  0  0  0
   31.5236  -10.7717   20.3516 C   0  0  0  0  0  0
   32.3736   -9.5063   20.6813 C   0  0  0  0  0  0
   32.1996   -8.5304   19.5045 C   0  0  0  0  0  0
   38.0539    3.3294   19.2805 H   0  0  0  0  0  0
   34.8326   -9.2590   18.8379 H   0  0  0  0  0  0
  1  2  2  0  0  0
  1 16  1  0  0  0
  2  3  1  0  0  0
  3  4  1  0  0  0
  3  5  2  0  0  0
  4 35  1  0  0  0
  5  6  1  0  0  0
  6  7  1  0  0  0
  6 16  2  0  0  0
  7  8  1  0  0  0
  8  9  1  0  0  0
  8 17  2  0  0  0
  9 10  2  0  0  0
  9 15  1  0  0  0
 10 11  1  0  0  0
 11 12  2  0  0  0
 12 13  1  0  0  0
 12 14  1  0  0  0
 13 36  1  0  0  0
 14 15  2  0  0  0
 16 17  1  0  0  0
 17 18  1  0  0  0
 18 19  2  0  0  0
 18 20  1  0  0  0
 20 21  2  0  0  0
 20 25  1  0  0  0
 21 22  1  0  0  0
 22 23  2  0  0  0
 23 24  1  0  0  0
 23 26  1  0  0  0
 24 25  2  0  0  0
 26 27  1  0  0  0
 27 28  1  0  0  0
 28 29  1  0  0  0
 29 30  1  0  0  0
 29 34  1  0  0  0
 30 31  1  0  0  0
 31 32  1  0  0  0
 32 33  1  0  0  0
 33 34  1  0  0  0
M  END
>  <CHROM.0>
-102.07108963,-27.09044142,-59.50845632

>  <CHROM.1>
7.35442714,-40.16208047,-147.17487204,149.72461026,-32.87325428,118.83234845
-57.96704835,158.68148234,69.28476116,34.73017539,-4.77804831,18.44290796
1.03081635,-0.50082692,-0.22094785

>  <FORMUL>
      RAL    C28 H27 N1 O4 S1

>  <HET>
 RAL  A 600      34

>  <HETNAM>
     RAL RALOXIFENE

>  <Name>
RAL.pdb

>  <RI>
0

>  <Rbt.Current_Directory>
/home/malgorzata/Desktop/rDOCK_IFD/Wyniki/6b_estrogen_receptor/IFD

>  <Rbt.Executable>
rbdock ($Id: //depot/dev/client3/rdock/2013.1/src/exe/rbdock.cxx#4 $)

>  <Rbt.Library>
libRbt.so (2013.1, Build901 2013/11/27)

>  <Rbt.Parameter_File>
/home/malgorzata/Desktop/rDock_2013.1_src/data/scripts/hard_docking.prm

>  <Rbt.Receptor>
cavity.prm

>  <SCORE>
-8.00156

>  <SCORE.INTER>
-7.39386

>  <SCORE.INTER.CONST>
1

>  <SCORE.INTER.POLAR>
0

>  <SCORE.INTER.REPUL>
0

>  <SCORE.INTER.ROT>
7

>  <SCORE.INTER.VDW>
-19.7939

>  <SCORE.INTER.norm>
-0.217466

>  <SCORE.INTRA>
-3.80291

>  <SCORE.INTRA.DIHEDRAL>
-0.0630787

>  <SCORE.INTRA.DIHEDRAL.0>
18.358

>  <SCORE.INTRA.POLAR>
-0.972674

>  <SCORE.INTRA.POLAR.0>
0

>  <SCORE.INTRA.REPUL>
0

>  <SCORE.INTRA.REPUL.0>
0

>  <SCORE.INTRA.VDW>
-0.464279

>  <SCORE.INTRA.VDW.0>
-1.94569

>  <SCORE.INTRA.norm>
-0.11185

>  <SCORE.RESTR>
4.44503

>  <SCORE.RESTR.CAVITY>
4.44503

>  <SCORE.RESTR.norm>
0.130736

>  <SCORE.SYSTEM>
-1.24983

>  <SCORE.SYSTEM.CONST>
0

>  <SCORE.SYSTEM.DIHEDRAL>
0.811819

>  <SCORE.SYSTEM.POLAR>
-0.474342

>  <SCORE.SYSTEM.VDW>
-0.0429746

>  <SCORE.SYSTEM.norm>
-0.0367596

>  <SCORE.heavy>
34

>  <SCORE.norm>
-0.23534

$$$$
RAL.pdb
  rDOCK(R)          3D
libRbt.so/2013.1/901 2013/11/27
 36 40  0  0  0  0  0  0  0  0999 V2000
   36.9498   -8.1654   18.7226 C   0  0  0  0  0  0
   37.1443   -9.2879   19.4855 C   0  0  0  0  0  0
   37.9702   -9.3009   20.5747 C   0  0  0  0  0  0
   38.0551  -10.4803   21.2716 O   0  0  0  0  0  0
   38.6335   -8.1254   20.9451 C   0  0  0  0  0  0
   38.4093   -6.9948   20.1989 C   0  0  0  0  0  0
   39.0714   -5.4880   20.3486 S   0  0  0  0  0  0
   38.2627   -4.7450   19.0666 C   0  0  0  0  0  0
   38.5175   -3.3424   18.6310 C   0  0  0  0  0  0
   37.9808   -2.9991   17.4054 C   0  0  0  0  0  0
   38.1044   -1.6870   16.9780 C   0  0  0  0  0  0
   38.7796   -0.7448   17.7286 C   0  0  0  0  0  0
   38.8487    0.5526   17.2180 O   0  0  0  0  0  0
   39.2744   -1.0781   18.9724 C   0  0  0  0  0  0
   39.1310   -2.3923   19.4000 C   0  0  0  0  0  0
   37.5563   -7.0145   19.0587 C   0  0  0  0  0  0
   37.4981   -5.7218   18.3944 C   0  0  0  0  0  0
   36.7604   -5.5121   17.2449 C   0  0  0  0  0  0
   37.3477   -5.3692   16.1652 O   0  0  0  0  0  0
   35.2954   -5.4346   17.2442 C   0  0  0  0  0  0
   34.5690   -5.8362   18.3472 C   0  0  0  0  0  0
   33.1886   -5.7901   18.3735 C   0  0  0  0  0  0
   32.5116   -5.3508   17.2371 C   0  0  0  0  0  0
   33.2295   -4.9383   16.1287 C   0  0  0  0  0  0
   34.6140   -4.9694   16.1394 C   0  0  0  0  0  0
   31.1695   -5.2320   17.0275 O   0  0  0  0  0  0
   30.3645   -5.0154   18.1764 C   0  0  0  0  0  0
   30.4955   -3.5912   18.6465 C   0  0  0  0  0  0
   31.5978   -2.9551   19.3420 N   0  0  0  0  0  0
   32.6293   -2.5777   18.3546 C   0  0  0  0  0  0
   33.7893   -1.7550   18.9507 C   0  0  0  0  0  0
   34.4753   -2.6495   19.9958 C   0  0  0  0  0  0
   33.3822   -2.8531   21.0896 C   0  0  0  0  0  0
   32.2543   -3.6797   20.4477 C   0  0  0  0  0  0
   37.6188  -11.2456   20.9524 H   0  0  0  0  0  0
   38.4643    0.7500   16.3865 H   0  0  0  0  0  0
  1  2  2  0  0  0
  1 16  1  0  0  0
  2  3  1  0  0  0
  3  4  1  0  0  0
  3  5  2  0  0  0
  4 35  1  0  0  0
  5  6  1  0  0  0
  6  7  1  0  0  0
  6 16  2  0  0  0
  7  8  1  0  0  0
  8  9  1  0  0  0
  8 17  2  0  0  0
  9 10  2  0  0  0
  9 15  1  0  0  0
 10 11  1  0  0  0
 11 12  2  0  0  0
 12 13  1  0  0  0
 12 14  1  0  0  0
 13 36  1  0  0  0
 14 15  2  0  0  0
 16 17  1  0  0  0
 17 18  1  0  0  0
 18 19  2  0  0  0
 18 20  1  0  0  0
 20 21  2  0  0  0
 20 25  1  0  0  0
 21 22  1  0  0  0
 22 23  2  0  0  0
 23 24  1  0  0  0
 23 26  1  0  0  0
 24 25  2  0  0  0
 26 27  1  0  0  0
 27 28  1  0  0  0
 28 29  1  0  0  0
 29 30  1  0  0  0
 29 34  1  0  0  0
 30 31  1  0  0  0
 31 32  1  0  0  0
 32 33  1  0  0  0
 33 34  1  0  0  0
M  END
>  <CHROM.0>
163.20825138,83.22284704,-59.50845632

>  <CHROM.1>
5.21984147,166.79323241,-1.51665718,73.13951753,-13.27605886,26.99726185
75.73265541,-74.42638111,81.41940363,35.88620026,-4.72298726,18.69303307
0.44416095,0.09568692,2.89809213

>  <FORMUL>
      RAL    C28 H27 N1 O4 S1

>  <HET>
 RAL  A 600      34

>  <HETNAM>
     RAL RALOXIFENE

>  <Name>
RAL.pdb

>  <RI>
0

>  <Rbt.Current_Directory>
/home/malgorzata/Desktop/rDOCK_IFD/Wyniki/6b_estrogen_receptor/IFD

>  <Rbt.Executable>
rbdock ($Id: //depot/dev/client3/rdock/2013.1/src/exe/rbdock.cxx#4 $)

>  <Rbt.Library>
libRbt.so (2013.1, Build901 2013/11/27)

>  <Rbt.Parameter_File>
/home/malgorzata/Desktop/rDock_2013.1_src/data/scripts/hard_docking.prm

>  <Rbt.Receptor>
cavity.prm

>  <SCORE>
-13.3915

>  <SCORE.INTER>
-11.5396

>  <SCORE.INTER.CONST>
1

>  <SCORE.INTER.POLAR>
0

>  <SCORE.INTER.REPUL>
0

>  <SCORE.INTER.ROT>
7

>  <SCORE.INTER.VDW>
-23.9396

>  <SCORE.INTER.norm>
-0.3394

>  <SCORE.INTRA>
-2.35279

>  <SCORE.INTRA.DIHEDRAL>
-3.20116

>  <SCORE.INTRA.DIHEDRAL.0>
18.358

>  <SCORE.INTRA.POLAR>
0

>  <SCORE.INTRA.POLAR.0>
0

>  <SCORE.INTRA.REPUL>
0

>  <SCORE.INTRA.REPUL.0>
0

>  <SCORE.INTRA.VDW>
-0.752214

>  <SCORE.INTRA.VDW.0>
-1.94569

>  <SCORE.INTRA.norm>
-0.0691998

>  <SCORE.RESTR>
2.1869

>  <SCORE.RESTR.CAVITY>
2.1869

>  <SCORE.RESTR.norm>
0.0643206

>  <SCORE.SYSTEM>
-1.68603

>  <SCORE.SYSTEM.CONST>
0

>  <SCORE.SYSTEM.DIHEDRAL>
0.810948

>  <SCORE.SYSTEM.POLAR>
-0.474342

>  <SCORE.SYSTEM.VDW>
-0.478746

>  <SCORE.SYSTEM.norm>
-0.0495892

>  <SCORE.heavy>
34

>  <SCORE.norm>
-0.393869

$$$$
RAL.pdb
  rDOCK(R)          3D
libRbt.so/2013.1/901 2013/11/27
 36 40  0  0  0  0  0  0  0  0999 V2000
   32.1497   -7.1345   17.4126 C   0  0  0  0  0  0
   31.2998   -7.5188   16.4077 C   0  0  0  0  0  0
   31.4372   -8.7062   15.7444 C   0  0  0  0  0  0
   30.5027   -8.9861   14.7789 O   0  0  0  0  0  0
   32.4696   -9.5784   16.1083 C   0  0  0  0  0  0
   33.2974   -9.2051   17.1382 C   0  0  0  0  0  0
   34.6176   -9.9810   17.7597 S   0  0  0  0  0  0
   35.0140   -8.8555   18.9538 C   0  0  0  0  0  0
   36.2174   -8.9661   19.8264 C   0  0  0  0  0  0
   36.1266   -8.3148   21.0412 C   0  0  0  0  0  0
   37.1740   -8.4480   21.9383 C   0  0  0  0  0  0
   38.3043   -9.1764   21.6240 C   0  0  0  0  0  0
   39.3056   -9.2570   22.5935 O   0  0  0  0  0  0
   38.3733   -9.8634   20.4298 C   0  0  0  0  0  0
   37.3107   -9.7376   19.5433 C   0  0  0  0  0  0
   33.1413   -7.9541   17.8006 C   0  0  0  0  0  0
   34.1509   -7.7468   18.8269 C   0  0  0  0  0  0
   34.2181   -6.5878   19.5765 C   0  0  0  0  0  0
   33.1928   -6.1559   20.1182 O   0  0  0  0  0  0
   35.4594   -5.8258   19.7518 C   0  0  0  0  0  0
   36.5330   -6.0259   18.9076 C   0  0  0  0  0  0
   37.7207   -5.3360   19.0543 C   0  0  0  0  0  0
   37.8438   -4.4315   20.1076 C   0  0  0  0  0  0
   36.7716   -4.2169   20.9551 C   0  0  0  0  0  0
   35.5830   -4.9026   20.7685 C   0  0  0  0  0  0
   38.9094   -3.6545   20.4542 O   0  0  0  0  0  0
   39.2260   -2.5840   19.5775 C   0  0  0  0  0  0
   38.1311   -1.5509   19.5960 C   0  0  0  0  0  0
   37.6298   -0.7296   18.5108 N   0  0  0  0  0  0
   36.7409    0.3085   19.0709 C   0  0  0  0  0  0
   36.2613    1.3428   18.0327 C   0  0  0  0  0  0
   35.4440    0.5712   16.9841 C   0  0  0  0  0  0
   36.4897   -0.3730   16.3150 C   0  0  0  0  0  0
   36.9313   -1.3842   17.3874 C   0  0  0  0  0  0
   29.7791   -8.4061   14.6450 H   0  0  0  0  0  0
   39.2260   -8.7710   23.3906 H   0  0  0  0  0  0
  1  2  2  0  0  0
  1 16  1  0  0  0
  2  3  1  0  0  0
  3  4  1  0  0  0
  3  5  2  0  0  0
  4 35  1  0  0  0
  5  6  1  0  0  0
  6  7  1  0  0  0
  6 16  2  0  0  0
  7  8  1  0  0  0
  8  9  1  0  0  0
  8 17  2  0  0  0
  9 10  2  0  0  0
  9 15  1  0  0  0
 10 11  1  0  0  0
 11 12  2  0  0  0
 12 13  1  0  0  0
 12 14  1  0  0  0
 13 36  1  0  0  0
 14 15  2  0  0  0
 16 17  1  0  0  0
 17 18  1  0  0  0
 18 19  2  0  0  0
 18 20  1  0  0  0
 20 21  2  0  0  0
 20 25  1  0  0  0
 21 22  1  0  0  0
 22 23  2  0  0  0
 23 24  1  0  0  0
 23 26  1  0  0  0
 24 25  2  0  0  0
 26 27  1  0  0  0
 27 28  1  0  0  0
 28 29  1  0  0  0
 29 30  1  0  0  0
 29 34  1  0  0  0
 30 31  1  0  0  0
 31 32  1  0  0  0
 32 33  1  0  0  0
 33 34  1  0  0  0
M  END
>  <CHROM.0>
-172.65872270,82.27469674,-59.50845632

>  <CHROM.1>
-4.43344897,-155.39740217,-4.90224290,-130.12676032,17.01609047,69.79944033
66.85143063,-144.56329143,-169.13039715,35.69139939,-5.98346411,18.87012754
2.07195060,0.66286574,2.90133616

>  <FORMUL>
      RAL    C28 H27 N1 O4 S1

>  <HET>
 RAL  A 600      34

>  <HETNAM>
     RAL RALOXIFENE

>  <Name>
RAL.pdb

>  <RI>
0

>  <Rbt.Current_Directory>
/home/malgorzata/Desktop/rDOCK_IFD/Wyniki/6b_estrogen_receptor/IFD

>  <Rbt.Executable>
rbdock ($Id: //depot/dev/client3/rdock/2013.1/src/exe/rbdock.cxx#4 $)

>  <Rbt.Library>
libRbt.so (2013.1, Build901 2013/11/27)

>  <Rbt.Parameter_File>
/home/malgorzata/Desktop/rDock_2013.1_src/data/scripts/hard_docking.prm

>  <Rbt.Receptor>
cavity.prm

>  <SCORE>
-2.409

>  <SCORE.INTER>
-1.36799

>  <SCORE.INTER.CONST>
1

>  <SCORE.INTER.POLAR>
0

>  <SCORE.INTER.REPUL>
0

>  <SCORE.INTER.ROT>
7

>  <SCORE.INTER.VDW>
-13.768

>  <SCORE.INTER.norm>
-0.0402351

>  <SCORE.INTRA>
-0.542666

>  <SCORE.INTRA.DIHEDRAL>
0.437099

>  <SCORE.INTRA.DIHEDRAL.0>
18.358

>  <SCORE.INTRA.POLAR>
0

>  <SCORE.INTRA.POLAR.0>
0

>  <SCORE.INTRA.REPUL>
0

>  <SCORE.INTRA.REPUL.0>
0

>  <SCORE.INTRA.VDW>
-0.761215

>  <SCORE.INTRA.VDW.0>
-1.94569

>  <SCORE.INTRA.norm>
-0.0159608

>  <SCORE.RESTR>
1.16628

>  <SCORE.RESTR.CAVITY>
1.16628

>  <SCORE.RESTR.norm>
0.0343024

>  <SCORE.SYSTEM>
-1.66462

>  <SCORE.SYSTEM.CONST>
0

>  <SCORE.SYSTEM.DIHEDRAL>
0.818527

>  <SCORE.SYSTEM.POLAR>
-0.474342

>  <SCORE.SYSTEM.VDW>
-0.461121

>  <SCORE.SYSTEM.norm>
-0.0489594

>  <SCORE.heavy>
34

>  <SCORE.norm>
-0.0708529

$$$$
RAL.pdb
  rDOCK(R)          3D
libRbt.so/2013.1/901 2013/11/27
 36 40  0  0  0  0  0  0  0  0999 V2000
   35.3927   -1.1091   19.8584 C   0  0  0  0  0  0
   35.0738    0.0855   19.2659 C   0  0  0  0  0  0
   34.9961    0.2340   17.9092 C   0  0  0  0  0  0
   34.6380    1.4744   17.4431 O   0  0  0  0  0  0
   35.2313   -0.8721   17.0847 C   0  0  0  0  0  0
   35.5166   -2.0746   17.6830 C   0  0  0  0  0  0
   35.8859   -3.5305   16.9936 S   0  0  0  0  0  0
   36.0836   -4.4221   18.4133 C   0  0  0  0  0  0
   36.5250   -5.8455   18.4402 C   0  0  0  0  0  0
   36.3467   -6.4953   19.6460 C   0  0  0  0  0  0
   36.6543   -7.8444   19.7174 C   0  0  0  0  0  0
   37.1655   -8.5259   18.6305 C   0  0  0  0  0  0
   37.4413   -9.8842   18.7970 O   0  0  0  0  0  0
   37.2993   -7.8869   17.4154 C   0  0  0  0  0  0
   36.9724   -6.5380   17.3489 C   0  0  0  0  0  0
   35.6076   -2.1965   19.0990 C   0  0  0  0  0  0
   35.9620   -3.5454   19.5121 C   0  0  0  0  0  0
   36.1410   -3.8912   20.8379 C   0  0  0  0  0  0
   37.2393   -4.3243   21.2086 O   0  0  0  0  0  0
   35.0735   -3.7826   21.8384 C   0  0  0  0  0  0
   33.8375   -3.2723   21.4960 C   0  0  0  0  0  0
   32.8161   -3.1428   22.4170 C   0  0  0  0  0  0
   33.0557   -3.5135   23.7390 C   0  0  0  0  0  0
   34.2881   -4.0337   24.0919 C   0  0  0  0  0  0
   35.2856   -4.1779   23.1423 C   0  0  0  0  0  0
   32.2154   -3.4652   24.8118 O   0  0  0  0  0  0
   31.6132   -2.2103   25.0903 C   0  0  0  0  0  0
   30.7521   -2.3046   26.3216 C   0  0  0  0  0  0
   30.0249   -1.2566   27.0119 N   0  0  0  0  0  0
   28.9670   -0.7434   26.1183 C   0  0  0  0  0  0
   28.0234    0.2735   26.7916 C   0  0  0  0  0  0
   28.8883    1.4771   27.1996 C   0  0  0  0  0  0
   29.8575    0.8946   28.2739 C   0  0  0  0  0  0
   30.7762   -0.1070   27.5526 C   0  0  0  0  0  0
   34.5268    1.6152   16.5235 H   0  0  0  0  0  0
   37.7964  -10.3807   18.0861 H   0  0  0  0  0  0
  1  2  2  0  0  0
  1 16  1  0  0  0
  2  3  1  0  0  0
  3  4  1  0  0  0
  3  5  2  0  0  0
  4 35  1  0  0  0
  5  6  1  0  0  0
  6  7  1  0  0  0
  6 16  2  0  0  0
  7  8  1  0  0  0
  8  9  1  0  0  0
  8 17  2  0  0  0
  9 10  2  0  0  0
  9 15  1  0  0  0
 10 11  1  0  0  0
 11 12  2  0  0  0
 12 13  1  0  0  0
 12 14  1  0  0  0
 13 36  1  0  0  0
 14 15  2  0  0  0
 16 17  1  0  0  0
 17 18  1  0  0  0
 18 19  2  0  0  0
 18 20  1  0  0  0
 20 21  2  0  0  0
 20 25  1  0  0  0
 21 22  1  0  0  0
 22 23  2  0  0  0
 23 24  1  0  0  0
 23 26  1  0  0  0
 24 25  2  0  0  0
 26 27  1  0  0  0
 27 28  1  0  0  0
 28 29  1  0  0  0
 29 30  1  0  0  0
 29 34  1  0  0  0
 30 31  1  0  0  0
 31 32  1  0  0  0
 32 33  1  0  0  0
 33 34  1  0  0  0
M  END
>  <CHROM.0>
-84.81777448,82.41949196,-59.50845632

>  <CHROM.1>
-176.77336451,-166.18898783,-179.44192638,60.91246630,-2.50047366,-54.40393412
-178.21142492,175.72760653,65.01894930,34.17049664,-3.12026589,21.41308262
0.04061828,0.98053140,-0.58512520

>  <FORMUL>
      RAL    C28 H27 N1 O4 S1

>  <HET>
 RAL  A 600      34

>  <HETNAM>
     RAL RALOXIFENE

>  <Name>
RAL.pdb

>  <RI>
0

>  <Rbt.Current_Directory>
/home/malgorzata/Desktop/rDOCK_IFD/Wyniki/6b_estrogen_receptor/IFD

>  <Rbt.Executable>
rbdock ($Id: //depot/dev/client3/rdock/2013.1/src/exe/rbdock.cxx#4 $)

>  <Rbt.Library>
libRbt.so (2013.1, Build901 2013/11/27)

>  <Rbt.Parameter_File>
/home/malgorzata/Desktop/rDock_2013.1_src/data/scripts/hard_docking.prm

>  <Rbt.Receptor>
cavity.prm

>  <SCORE>
-12.8388

>  <SCORE.INTER>
-9.04101

>  <SCORE.INTER.CONST>
1

>  <SCORE.INTER.POLAR>
0

>  <SCORE.INTER.REPUL>
0

>  <SCORE.INTER.ROT>
7

>  <SCORE.INTER.VDW>
-21.441

>  <SCORE.INTER.norm>
-0.265912

>  <SCORE.INTRA>
-2.24665

>  <SCORE.INTRA.DIHEDRAL>
-5.24757

>  <SCORE.INTRA.DIHEDRAL.0>
18.358

>  <SCORE.INTRA.POLAR>
0

>  <SCORE.INTRA.POLAR.0>
0

>  <SCORE.INTRA.REPUL>
0

>  <SCORE.INTRA.REPUL.0>
0

>  <SCORE.INTRA.VDW>
0.377132

>  <SCORE.INTRA.VDW.0>
-1.94569

>  <SCORE.INTRA.norm>
-0.066078

>  <SCORE.RESTR>
0.0700626

>  <SCORE.RESTR.CAVITY>
0.0700626

>  <SCORE.RESTR.norm>
0.00206067

>  <SCORE.SYSTEM>
-1.62119

>  <SCORE.SYSTEM.CONST>
0

>  <SCORE.SYSTEM.DIHEDRAL>
0.809419

>  <SCORE.SYSTEM.POLAR>
-0.474342

>  <SCORE.SYSTEM.VDW>
-0.413141

>  <SCORE.SYSTEM.norm>
-0.0476822

>  <SCORE.heavy>
34

>  <SCORE.norm>
-0.377611

$$$$
RAL.pdb
  rDOCK(R)          3D
libRbt.so/2013.1/901 2013/11/27
 36 40  0  0  0  0  0  0  0  0999 V2000
   34.8894   -9.1981   17.1628 C   0  0  0  0  0  0
   35.2401  -10.1462   16.2365 C   0  0  0  0  0  0
   34.4558  -10.4426   15.1568 C   0  0  0  0  0  0
   34.9345  -11.3905   14.2872 O   0  0  0  0  0  0
   33.2563   -9.7461   14.9700 C   0  0  0  0  0  0
   32.9255   -8.7736   15.8811 C   0  0  0  0  0  0
   31.5741   -7.8259   15.9632 S   0  0  0  0  0  0
   31.9838   -6.9475   17.3453 C   0  0  0  0  0  0
   31.0798   -5.9532   17.9904 C   0  0  0  0  0  0
   29.8094   -5.8762   17.4537 C   0  0  0  0  0  0
   28.8896   -5.0358   18.0598 C   0  0  0  0  0  0
   29.2315   -4.2582   19.1485 C   0  0  0  0  0  0
   28.2363   -3.4453   19.6940 O   0  0  0  0  0  0
   30.4860   -4.3708   19.7109 C   0  0  0  0  0  0
   31.3966   -5.2288   19.1064 C   0  0  0  0  0  0
   33.7537   -8.4973   17.0062 C   0  0  0  0  0  0
   33.1914   -7.4634   17.8610 C   0  0  0  0  0  0
   33.8041   -7.0546   19.0302 C   0  0  0  0  0  0
   33.2077   -7.1888   20.1061 O   0  0  0  0  0  0
   35.1392   -6.4473   19.0573 C   0  0  0  0  0  0
   35.7587   -6.1629   20.2576 C   0  0  0  0  0  0
   37.0086   -5.5779   20.3181 C   0  0  0  0  0  0
   37.6476   -5.2393   19.1266 C   0  0  0  0  0  0
   37.0398   -5.5269   17.9176 C   0  0  0  0  0  0
   35.7979   -6.1388   17.8859 C   0  0  0  0  0  0
   38.8633   -4.6506   18.9397 O   0  0  0  0  0  0
   39.4974   -4.1231   20.0950 C   0  0  0  0  0  0
   38.7028   -2.9702   20.6479 C   0  0  0  0  0  0
   38.2677   -1.7567   19.9834 N   0  0  0  0  0  0
   36.9512   -2.0010   19.3603 C   0  0  0  0  0  0
   36.3089   -0.7396   18.7488 C   0  0  0  0  0  0
   37.2508   -0.2598   17.6327 C   0  0  0  0  0  0
   38.5515    0.1487   18.3904 C   0  0  0  0  0  0
   39.1530   -1.1410   18.9756 C   0  0  0  0  0  0
   34.4692  -11.5779   13.4958 H   0  0  0  0  0  0
   28.4368   -2.8763   20.4110 H   0  0  0  0  0  0
  1  2  2  0  0  0
  1 16  1  0  0  0
  2  3  1  0  0  0
  3  4  1  0  0  0
  3  5  2  0  0  0
  4 35  1  0  0  0
  5  6  1  0  0  0
  6  7  1  0  0  0
  6 16  2  0  0  0
  7  8  1  0  0  0
  8  9  1  0  0  0
  8 17  2  0  0  0
  9 10  2  0  0  0
  9 15  1  0  0  0
 10 11  1  0  0  0
 11 12  2  0  0  0
 12 13  1  0  0  0
 12 14  1  0  0  0
 13 36  1  0  0  0
 14 15  2  0  0  0
 16 17  1  0  0  0
 17 18  1  0  0  0
 18 19  2  0  0  0
 18 20  1  0  0  0
 20 21  2  0  0  0
 20 25  1  0  0  0
 21 22  1  0  0  0
 22 23  2  0  0  0
 23 24  1  0  0  0
 23 26  1  0  0  0
 24 25  2  0  0  0
 26 27  1  0  0  0
 27 28  1  0  0  0
 28 29  1  0  0  0
 29 30  1  0  0  0
 29 34  1  0  0  0
 30 31  1  0  0  0
 31 32  1  0  0  0
 32 33  1  0  0  0
 33 34  1  0  0  0
M  END
>  <CHROM.0>
132.20805739,82.83246369,-59.50845632

>  <CHROM.1>
-174.94475630,5.80018654,-177.49343744,61.42615569,-174.26091687,-10.37871810
-65.65284308,-55.18491606,88.87279513,34.47329876,-5.65168063,18.15243628
-2.34901281,0.02050388,0.43120949

>  <FORMUL>
      RAL    C28 H27 N1 O4 S1

>  <HET>
 RAL  A 600      34

>  <HETNAM>
     RAL RALOXIFENE

>  <Name>
RAL.pdb

>  <RI>
0

>  <Rbt.Current_Directory>
/home/malgorzata/Desktop/rDOCK_IFD/Wyniki/6b_estrogen_receptor/IFD

>  <Rbt.Executable>
rbdock ($Id: //depot/dev/client3/rdock/2013.1/src/exe/rbdock.cxx#4 $)

>  <Rbt.Library>
libRbt.so (2013.1, Build901 2013/11/27)

>  <Rbt.Parameter_File>
/home/malgorzata/Desktop/rDock_2013.1_src/data/scripts/hard_docking.prm

>  <Rbt.Receptor>
cavity.prm

>  <SCORE>
-9.66406

>  <SCORE.INTER>
-8.90579

>  <SCORE.INTER.CONST>
1

>  <SCORE.INTER.POLAR>
0

>  <SCORE.INTER.REPUL>
0

>  <SCORE.INTER.ROT>
7

>  <SCORE.INTER.VDW>
-21.3058

>  <SCORE.INTER.norm>
-0.261935

>  <SCORE.INTRA>
-3.26246

>  <SCORE.INTRA.DIHEDRAL>
-7.56971

>  <SCORE.INTRA.DIHEDRAL.0>
18.358

>  <SCORE.INTRA.POLAR>
0

>  <SCORE.INTRA.POLAR.0>
0

>  <SCORE.INTRA.REPUL>
0

>  <SCORE.INTRA.REPUL.0>
0

>  <SCORE.INTRA.VDW>
0.522399

>  <SCORE.INTRA.VDW.0>
-1.94569

>  <SCORE.INTRA.norm>
-0.0959546

>  <SCORE.RESTR>
4.28307

>  <SCORE.RESTR.CAVITY>
4.28307

>  <SCORE.RESTR.norm>
0.125973

>  <SCORE.SYSTEM>
-1.77888

>  <SCORE.SYSTEM.CONST>
0

>  <SCORE.SYSTEM.DIHEDRAL>
0.812203

>  <SCORE.SYSTEM.POLAR>
-0.474342

>  <SCORE.SYSTEM.VDW>
-0.572218

>  <SCORE.SYSTEM.norm>
-0.0523199

>  <SCORE.heavy>
34

>  <SCORE.norm>
-0.284237

$$$$
RAL.pdb
  rDOCK(R)          3D
libRbt.so/2013.1/901 2013/11/27
 36 40  0  0  0  0  0  0  0  0999 V2000
   35.5939   -0.6449   19.6527 C   0  0  0  0  0  0
   35.7068    0.5461   18.9830 C   0  0  0  0  0  0
   36.7841    0.8467   18.1970 C   0  0  0  0  0  0
   36.7621    2.0606   17.5568 O   0  0  0  0  0  0
   37.8078   -0.0960   18.0486 C   0  0  0  0  0  0
   37.6745   -1.3010   18.6933 C   0  0  0  0  0  0
   38.7180   -2.5811   18.7554 S   0  0  0  0  0  0
   37.7888   -3.5975   19.7317 C   0  0  0  0  0  0
   38.2580   -4.9228   20.2270 C   0  0  0  0  0  0
   39.6108   -5.1613   20.0813 C   0  0  0  0  0  0
   40.1303   -6.3369   20.5987 C   0  0  0  0  0  0
   39.3220   -7.2745   21.2109 C   0  0  0  0  0  0
   39.9366   -8.4265   21.7049 O   0  0  0  0  0  0
   37.9802   -7.0139   21.3962 C   0  0  0  0  0  0
   37.4712   -5.8247   20.8889 C   0  0  0  0  0  0
   36.5489   -1.5808   19.5196 C   0  0  0  0  0  0
   36.6344   -2.8949   20.1371 C   0  0  0  0  0  0
   35.6714   -3.3685   21.0077 C   0  0  0  0  0  0
   36.0160   -3.8083   22.1119 O   0  0  0  0  0  0
   34.2424   -3.3894   20.6767 C   0  0  0  0  0  0
   33.8125   -3.1047   19.3963 C   0  0  0  0  0  0
   32.4738   -3.1012   19.0552 C   0  0  0  0  0  0
   31.5299   -3.3656   20.0460 C   0  0  0  0  0  0
   31.9496   -3.6601   21.3309 C   0  0  0  0  0  0
   33.2995   -3.6833   21.6389 C   0  0  0  0  0  0
   30.1702   -3.4054   19.9501 O   0  0  0  0  0  0
   29.6312   -3.6051   18.6521 C   0  0  0  0  0  0
   29.8995   -5.0106   18.1843 C   0  0  0  0  0  0
   31.1466   -5.7511   18.1801 N   0  0  0  0  0  0
   31.1243   -6.7145   17.0610 C   0  0  0  0  0  0
   32.4583   -7.4602   16.8556 C   0  0  0  0  0  0
   32.7157   -8.2684   18.1377 C   0  0  0  0  0  0
   32.9072   -7.1775   19.2358 C   0  0  0  0  0  0
   31.5519   -6.4687   19.4046 C   0  0  0  0  0  0
   36.0619    2.6623   17.7172 H   0  0  0  0  0  0
   39.4201   -9.0985   22.1044 H   0  0  0  0  0  0
  1  2  2  0  0  0
  1 16  1  0  0  0
  2  3  1  0  0  0
  3  4  1  0  0  0
  3  5  2  0  0  0
  4 35  1  0  0  0
  5  6  1  0  0  0
  6  7  1  0  0  0
  6 16  2  0  0  0
  7  8  1  0  0  0
  8  9  1  0  0  0
  8 17  2  0  0  0
  9 10  2  0  0  0
  9 15  1  0  0  0
 10 11  1  0  0  0
 11 12  2  0  0  0
 12 13  1  0  0  0
 12 14  1  0  0  0
 13 36  1  0  0  0
 14 15  2  0  0  0
 16 17  1  0  0  0
 17 18  1  0  0  0
 18 19  2  0  0  0
 18 20  1  0  0  0
 20 21  2  0  0  0
 20 25  1  0  0  0
 21 22  1  0  0  0
 22 23  2  0  0  0
 23 24  1  0  0  0
 23 26  1  0  0  0
 24 25  2  0  0  0
 26 27  1  0  0  0
 27 28  1  0  0  0
 28 29  1  0  0  0
 29 30  1  0  0  0
 29 34  1  0  0  0
 30 31  1  0  0  0
 31 32  1  0  0  0
 32 33  1  0  0  0
 33 34  1  0  0  0
M  END
>  <CHROM.0>
-111.21860192,82.42624434,-59.50845632

>  <CHROM.1>
4.35023687,13.29115729,-178.18424701,52.42838628,9.11382581,20.95545630,70.20710487
-49.61026197,-150.37704602,35.17940244,-3.97059039,19.55236326,0.20731824
-0.18125967,-0.18409022

>  <FORMUL>
      RAL    C28 H27 N1 O4 S1

>  <HET>
 RAL  A 600      34

>  <HETNAM>
     RAL RALOXIFENE

>  <Name>
RAL.pdb

>  <RI>
0

>  <Rbt.Current_Directory>
/home/malgorzata/Desktop/rDOCK_IFD/Wyniki/6b_estrogen_receptor/IFD

>  <Rbt.Executable>
rbdock ($Id: //depot/dev/client3/rdock/2013.1/src/exe/rbdock.cxx#4 $)

>  <Rbt.Library>
libRbt.so (2013.1, Build901 2013/11/27)

>  <Rbt.Parameter_File>
/home/malgorzata/Desktop/rDock_2013.1_src/data/scripts/hard_docking.prm

>  <Rbt.Receptor>
cavity.prm

>  <SCORE>
-17.9055

>  <SCORE.INTER>
-14.1767

>  <SCORE.INTER.CONST>
1

>  <SCORE.INTER.POLAR>
0

>  <SCORE.INTER.REPUL>
0

>  <SCORE.INTER.ROT>
7

>  <SCORE.INTER.VDW>
-26.5767

>  <SCORE.INTER.norm>
-0.416962

>  <SCORE.INTRA>
-3.88445

>  <SCORE.INTRA.DIHEDRAL>
-7.13094

>  <SCORE.INTRA.DIHEDRAL.0>
18.358

>  <SCORE.INTRA.POLAR>
0

>  <SCORE.INTRA.POLAR.0>
0

>  <SCORE.INTRA.REPUL>
0

>  <SCORE.INTRA.REPUL.0>
0

>  <SCORE.INTRA.VDW>
-0.318979

>  <SCORE.INTRA.VDW.0>
-1.94569

>  <SCORE.INTRA.norm>
-0.114249

>  <SCORE.RESTR>
1.80683

>  <SCORE.RESTR.CAVITY>
1.80683

>  <SCORE.RESTR.norm>
0.0531421

>  <SCORE.SYSTEM>
-1.65121

>  <SCORE.SYSTEM.CONST>
0

>  <SCORE.SYSTEM.DIHEDRAL>
0.813144

>  <SCORE.SYSTEM.POLAR>
-0.474342

>  <SCORE.SYSTEM.VDW>
-0.445025

>  <SCORE.SYSTEM.norm>
-0.0485651

>  <SCORE.heavy>
34

>  <SCORE.norm>
-0.526633

$$$$
RAL.pdb
  rDOCK(R)          3D
libRbt.so/2013.1/901 2013/11/27
 36 40  0  0  0  0  0  0  0  0999 V2000
   36.8519   -7.4482   20.0767 C   0  0  0  0  0  0
   36.9718   -8.7406   19.6347 C   0  0  0  0  0  0
   36.8359   -9.0813   18.3178 C   0  0  0  0  0  0
   37.0087  -10.4057   18.0014 O   0  0  0  0  0  0
   36.5826   -8.0794   17.3739 C   0  0  0  0  0  0
   36.4975   -6.7822   17.8160 C   0  0  0  0  0  0
   36.1634   -5.4028   16.9693 S   0  0  0  0  0  0
   36.2571   -4.3088   18.2515 C   0  0  0  0  0  0
   35.9542   -2.8552   18.1210 C   0  0  0  0  0  0
   35.8753   -2.3834   16.8251 C   0  0  0  0  0  0
   35.5112   -1.0613   16.6279 C   0  0  0  0  0  0
   35.2701   -0.2136   17.6911 C   0  0  0  0  0  0
   34.9052    1.1006   17.3937 O   0  0  0  0  0  0
   35.3044   -0.6981   18.9822 C   0  0  0  0  0  0
   35.6539   -2.0298   19.1694 C   0  0  0  0  0  0
   36.6266   -6.4581   19.1967 C   0  0  0  0  0  0
   36.4593   -5.0346   19.4443 C   0  0  0  0  0  0
   36.5087   -4.4927   20.7146 C   0  0  0  0  0  0
   37.6064   -4.2101   21.2108 O   0  0  0  0  0  0
   35.3079   -4.2466   21.5206 C   0  0  0  0  0  0
   34.0757   -4.0910   20.9181 C   0  0  0  0  0  0
   32.9284   -3.8435   21.6466 C   0  0  0  0  0  0
   33.0285   -3.7188   23.0312 C   0  0  0  0  0  0
   34.2569   -3.8808   23.6466 C   0  0  0  0  0  0
   35.3866   -4.1553   22.8942 C   0  0  0  0  0  0
   32.0484   -3.4671   23.9452 O   0  0  0  0  0  0
   31.8537   -2.1089   24.3091 C   0  0  0  0  0  0
   30.7961   -1.9989   25.3750 C   0  0  0  0  0  0
   30.2799   -0.8139   26.0327 N   0  0  0  0  0  0
   29.2969   -1.2269   27.0547 C   0  0  0  0  0  0
   28.7850   -0.0655   27.9304 C   0  0  0  0  0  0
   28.0676    0.9157   26.9893 C   0  0  0  0  0  0
   29.2045    1.4425   26.0604 C   0  0  0  0  0  0
   29.6754    0.2509   25.2085 C   0  0  0  0  0  0
   37.0496  -10.6715   17.1039 H   0  0  0  0  0  0
   34.6388    1.6798   18.0804 H   0  0  0  0  0  0
  1  2  2  0  0  0
  1 16  1  0  0  0
  2  3  1  0  0  0
  3  4  1  0  0  0
  3  5  2  0  0  0
  4 35  1  0  0  0
  5  6  1  0  0  0
  6  7  1  0  0  0
  6 16  2  0  0  0
  7  8  1  0  0  0
  8  9  1  0  0  0
  8 17  2  0  0  0
  9 10  2  0  0  0
  9 15  1  0  0  0
 10 11  1  0  0  0
 11 12  2  0  0  0
 12 13  1  0  0  0
 12 14  1  0  0  0
 13 36  1  0  0  0
 14 15  2  0  0  0
 16 17  1  0  0  0
 17 18  1  0  0  0
 18 19  2  0  0  0
 18 20  1  0  0  0
 20 21  2  0  0  0
 20 25  1  0  0  0
 21 22  1  0  0  0
 22 23  2  0  0  0
 23 24  1  0  0  0
 23 26  1  0  0  0
 24 25  2  0  0  0
 26 27  1  0  0  0
 27 28  1  0  0  0
 28 29  1  0  0  0
 29 30  1  0  0  0
 29 34  1  0  0  0
 30 31  1  0  0  0
 31 32  1  0  0  0
 32 33  1  0  0  0
 33 34  1  0  0  0
M  END
>  <CHROM.0>
-66.00691036,84.20221690,-59.50845632

>  <CHROM.1>
-171.14215078,-13.82672762,173.05793270,-95.19026873,-23.15185306,-93.99698791
-176.93193217,-179.84659259,-177.28004432,34.23309491,-3.53806941,21.04295372
0.11885657,-0.96218085,2.65218649

>  <FORMUL>
      RAL    C28 H27 N1 O4 S1

>  <HET>
 RAL  A 600      34

>  <HETNAM>
     RAL RALOXIFENE

>  <Name>
RAL.pdb

>  <RI>
0

>  <Rbt.Current_Directory>
/home/malgorzata/Desktop/rDOCK_IFD/Wyniki/6b_estrogen_receptor/IFD

>  <Rbt.Executable>
rbdock ($Id: //depot/dev/client3/rdock/2013.1/src/exe/rbdock.cxx#4 $)

>  <Rbt.Library>
libRbt.so (2013.1, Build901 2013/11/27)

>  <Rbt.Parameter_File>
/home/malgorzata/Desktop/rDock_2013.1_src/data/scripts/hard_docking.prm

>  <Rbt.Receptor>
cavity.prm

>  <SCORE>
-9.82226

>  <SCORE.INTER>
-7.70872

>  <SCORE.INTER.CONST>
1

>  <SCORE.INTER.POLAR>
0

>  <SCORE.INTER.REPUL>
0

>  <SCORE.INTER.ROT>
7

>  <SCORE.INTER.VDW>
-20.1087

>  <SCORE.INTER.norm>
-0.226727

>  <SCORE.INTRA>
-0.542951

>  <SCORE.INTRA.DIHEDRAL>
0.41364

>  <SCORE.INTRA.DIHEDRAL.0>
18.358

>  <SCORE.INTRA.POLAR>
0

>  <SCORE.INTRA.POLAR.0>
0

>  <SCORE.INTRA.REPUL>
0

>  <SCORE.INTRA.REPUL.0>
0

>  <SCORE.INTRA.VDW>
-0.749771

>  <SCORE.INTRA.VDW.0>
-1.94569

>  <SCORE.INTRA.norm>
-0.0159692

>  <SCORE.RESTR>
0

>  <SCORE.RESTR.CAVITY>
0

>  <SCORE.RESTR.norm>
0

>  <SCORE.SYSTEM>
-1.5706

>  <SCORE.SYSTEM.CONST>
0

>  <SCORE.SYSTEM.DIHEDRAL>
0.81435

>  <SCORE.SYSTEM.POLAR>
-0.474342

>  <SCORE.SYSTEM.VDW>
-0.365009

>  <SCORE.SYSTEM.norm>
-0.046194

>  <SCORE.heavy>
34

>  <SCORE.norm>
-0.28889

$$$$
RAL.pdb
  rDOCK(R)          3D
libRbt.so/2013.1/901 2013/11/27
 36 40  0  0  0  0  0  0  0  0999 V2000
   35.7514   -3.7710   14.4440 C   0  0  0  0  0  0
   36.4368   -2.9616   13.5751 C   0  0  0  0  0  0
   36.7965   -1.6817   13.8932 C   0  0  0  0  0  0
   37.5062   -0.9861   12.9464 O   0  0  0  0  0  0
   36.4742   -1.1738   15.1569 C   0  0  0  0  0  0
   35.8182   -1.9992   16.0366 C   0  0  0  0  0  0
   35.2635   -1.6827   17.5609 S   0  0  0  0  0  0
   34.6091   -3.2023   17.8956 C   0  0  0  0  0  0
   33.8597   -3.5224   19.1437 C   0  0  0  0  0  0
   33.2774   -4.7746   19.1770 C   0  0  0  0  0  0
   32.6393   -5.1719   20.3408 C   0  0  0  0  0  0
   32.5442   -4.3329   21.4335 C   0  0  0  0  0  0
   31.8858   -4.8226   22.5629 O   0  0  0  0  0  0
   33.1657   -3.1015   21.4148 C   0  0  0  0  0  0
   33.8178   -2.7183   20.2493 C   0  0  0  0  0  0
   35.4407   -3.3232   15.6722 C   0  0  0  0  0  0
   34.7198   -4.0013   16.7380 C   0  0  0  0  0  0
   34.2243   -5.2837   16.5979 C   0  0  0  0  0  0
   33.0904   -5.4477   16.1304 O   0  0  0  0  0  0
   34.9812   -6.4758   16.9955 C   0  0  0  0  0  0
   35.9918   -6.3878   17.9317 C   0  0  0  0  0  0
   36.7333   -7.4878   18.3171 C   0  0  0  0  0  0
   36.4680   -8.7175   17.7170 C   0  0  0  0  0  0
   35.4522   -8.8192   16.7834 C   0  0  0  0  0  0
   34.7063   -7.7054   16.4355 C   0  0  0  0  0  0
   37.0691   -9.9237   17.9250 O   0  0  0  0  0  0
   37.2715  -10.3071   19.2766 C   0  0  0  0  0  0
   36.0198  -10.9273   19.8379 C   0  0  0  0  0  0
   34.6651  -10.4094   19.8431 N   0  0  0  0  0  0
   34.0033  -10.7946   18.5802 C   0  0  0  0  0  0
   32.5055  -10.4321   18.5272 C   0  0  0  0  0  0
   32.4166   -8.9010   18.6308 C   0  0  0  0  0  0
   32.9645   -8.5899   20.0576 C   0  0  0  0  0  0
   34.4571   -8.9637   20.0558 C   0  0  0  0  0  0
   37.6818   -1.3757   12.1126 H   0  0  0  0  0  0
   31.9149   -4.3426   23.3671 H   0  0  0  0  0  0
  1  2  2  0  0  0
  1 16  1  0  0  0
  2  3  1  0  0  0
  3  4  1  0  0  0
  3  5  2  0  0  0
  4 35  1  0  0  0
  5  6  1  0  0  0
  6  7  1  0  0  0
  6 16  2  0  0  0
  7  8  1  0  0  0
  8  9  1  0  0  0
  8 17  2  0  0  0
  9 10  2  0  0  0
  9 15  1  0  0  0
 10 11  1  0  0  0
 11 12  2  0  0  0
 12 13  1  0  0  0
 12 14  1  0  0  0
 13 36  1  0  0  0
 14 15  2  0  0  0
 16 17  1  0  0  0
 17 18  1  0  0  0
 18 19  2  0  0  0
 18 20  1  0  0  0
 20 21  2  0  0  0
 20 25  1  0  0  0
 21 22  1  0  0  0
 22 23  2  0  0  0
 23 24  1  0  0  0
 23 26  1  0  0  0
 24 25  2  0  0  0
 26 27  1  0  0  0
 27 28  1  0  0  0
 28 29  1  0  0  0
 29 30  1  0  0  0
 29 34  1  0  0  0
 30 31  1  0  0  0
 31 32  1  0  0  0
 32 33  1  0  0  0
 33 34  1  0  0  0
M  END
>  <CHROM.0>
103.87292712,-28.92995455,-59.50845632

>  <CHROM.1>
3.22273893,173.36224283,170.43354697,92.31752807,22.84589608,46.15840882
83.10298268,-52.22922931,86.71504910,34.80424118,-5.75602800,17.89244544
-1.28221944,-0.97996367,2.90805641

>  <FORMUL>
      RAL    C28 H27 N1 O4 S1

>  <HET>
 RAL  A 600      34

>  <HETNAM>
     RAL RALOXIFENE

>  <Name>
RAL.pdb

>  <RI>
0

>  <Rbt.Current_Directory>
/home/malgorzata/Desktop/rDOCK_IFD/Wyniki/6b_estrogen_receptor/IFD

>  <Rbt.Executable>
rbdock ($Id: //depot/dev/client3/rdock/2013.1/src/exe/rbdock.cxx#4 $)

>  <Rbt.Library>
libRbt.so (2013.1, Build901 2013/11/27)

>  <Rbt.Parameter_File>
/home/malgorzata/Desktop/rDock_2013.1_src/data/scripts/hard_docking.prm

>  <Rbt.Receptor>
cavity.prm

>  <SCORE>
-2.59902

>  <SCORE.INTER>
-4.04171

>  <SCORE.INTER.CONST>
1

>  <SCORE.INTER.POLAR>
0

>  <SCORE.INTER.REPUL>
0

>  <SCORE.INTER.ROT>
7

>  <SCORE.INTER.VDW>
-16.4417

>  <SCORE.INTER.norm>
-0.118874

>  <SCORE.INTRA>
-1.73115

>  <SCORE.INTRA.DIHEDRAL>
1.28855

>  <SCORE.INTRA.DIHEDRAL.0>
18.358

>  <SCORE.INTRA.POLAR>
0

>  <SCORE.INTRA.POLAR.0>
0

>  <SCORE.INTRA.REPUL>
0

>  <SCORE.INTRA.REPUL.0>
0

>  <SCORE.INTRA.VDW>
-2.37543

>  <SCORE.INTRA.VDW.0>
-1.94569

>  <SCORE.INTRA.norm>
-0.0509162

>  <SCORE.RESTR>
4.64789

>  <SCORE.RESTR.CAVITY>
4.64789

>  <SCORE.RESTR.norm>
0.136703

>  <SCORE.SYSTEM>
-1.47404

>  <SCORE.SYSTEM.CONST>
0

>  <SCORE.SYSTEM.DIHEDRAL>
0.822643

>  <SCORE.SYSTEM.POLAR>
-0.468942

>  <SCORE.SYSTEM.VDW>
-0.290961

>  <SCORE.SYSTEM.norm>
-0.0433542

>  <SCORE.heavy>
34

>  <SCORE.norm>
-0.0764417

$$$$
RAL.pdb
  rDOCK(R)          3D
libRbt.so/2013.1/901 2013/11/27
 36 40  0  0  0  0  0  0  0  0999 V2000
   34.7720   -0.5518   19.2313 C   0  0  0  0  0  0
   35.6214    0.5027   19.4474 C   0  0  0  0  0  0
   36.6274    0.8244   18.5795 C   0  0  0  0  0  0
   37.3890    1.9215   18.8962 O   0  0  0  0  0  0
   36.7950    0.0672   17.4145 C   0  0  0  0  0  0
   35.9208   -0.9665   17.1848 C   0  0  0  0  0  0
   35.8875   -2.0593   15.9454 S   0  0  0  0  0  0
   34.5331   -2.9374   16.4396 C   0  0  0  0  0  0
   34.0382   -4.1565   15.7392 C   0  0  0  0  0  0
   34.5056   -4.3268   14.4506 C   0  0  0  0  0  0
   34.1557   -5.4827   13.7718 C   0  0  0  0  0  0
   33.3280   -6.4305   14.3408 C   0  0  0  0  0  0
   33.0341   -7.5644   13.5814 O   0  0  0  0  0  0
   32.9001   -6.2808   15.6436 C   0  0  0  0  0  0
   33.2700   -5.1262   16.3225 C   0  0  0  0  0  0
   34.8919   -1.2898   18.1148 C   0  0  0  0  0  0
   34.1135   -2.4438   17.6930 C   0  0  0  0  0  0
   33.0836   -2.9614   18.4552 C   0  0  0  0  0  0
   31.9940   -3.2004   17.9196 O   0  0  0  0  0  0
   33.2159   -3.2313   19.8911 C   0  0  0  0  0  0
   34.4572   -3.2353   20.4949 C   0  0  0  0  0  0
   34.6178   -3.5002   21.8411 C   0  0  0  0  0  0
   33.4903   -3.8012   22.6033 C   0  0  0  0  0  0
   32.2403   -3.7923   22.0105 C   0  0  0  0  0  0
   32.1055   -3.4966   20.6644 C   0  0  0  0  0  0
   33.4046   -4.1035   23.9302 O   0  0  0  0  0  0
   34.5686   -3.8742   24.7098 C   0  0  0  0  0  0
   34.2351   -3.9283   26.1768 C   0  0  0  0  0  0
   35.0470   -3.5408   27.3145 N   0  0  0  0  0  0
   34.2954   -3.8238   28.5540 C   0  0  0  0  0  0
   35.1119   -3.5958   29.8421 C   0  0  0  0  0  0
   35.4822   -2.1042   29.8732 C   0  0  0  0  0  0
   36.4193   -1.9253   28.6393 C   0  0  0  0  0  0
   35.5586   -2.1582   27.3854 C   0  0  0  0  0  0
   38.0740    2.1984   18.3199 H   0  0  0  0  0  0
   33.3496   -7.6339   12.7018 H   0  0  0  0  0  0
  1  2  2  0  0  0
  1 16  1  0  0  0
  2  3  1  0  0  0
  3  4  1  0  0  0
  3  5  2  0  0  0
  4 35  1  0  0  0
  5  6  1  0  0  0
  6  7  1  0  0  0
  6 16  2  0  0  0
  7  8  1  0  0  0
  8  9  1  0  0  0
  8 17  2  0  0  0
  9 10  2  0  0  0
  9 15  1  0  0  0
 10 11  1  0  0  0
 11 12  2  0  0  0
 12 13  1  0  0  0
 12 14  1  0  0  0
 13 36  1  0  0  0
 14 15  2  0  0  0
 16 17  1  0  0  0
 17 18  1  0  0  0
 18 19  2  0  0  0
 18 20  1  0  0  0
 20 21  2  0  0  0
 20 25  1  0  0  0
 21 22  1  0  0  0
 22 23  2  0  0  0
 23 24  1  0  0  0
 23 26  1  0  0  0
 24 25  2  0  0  0
 26 27  1  0  0  0
 27 28  1  0  0  0
 28 29  1  0  0  0
 29 30  1  0  0  0
 29 34  1  0  0  0
 30 31  1  0  0  0
 31 32  1  0  0  0
 32 33  1  0  0  0
 33 34  1  0  0  0
M  END
>  <CHROM.0>
93.09714172,-30.34490470,-59.50845632

>  <CHROM.1>
-178.13659120,-17.70844854,-3.90306274,-48.03604150,-13.26352746,11.61443867
166.26349852,-168.75962152,-178.14088682,34.50905441,-2.99025229,20.31965432
-1.68711159,1.04630782,1.59564564

>  <FORMUL>
      RAL    C28 H27 N1 O4 S1

>  <HET>
 RAL  A 600      34

>  <HETNAM>
     RAL RALOXIFENE

>  <Name>
RAL.pdb

>  <RI>
0

>  <Rbt.Current_Directory>
/home/malgorzata/Desktop/rDOCK_IFD/Wyniki/6b_estrogen_receptor/IFD

>  <Rbt.Executable>
rbdock ($Id: //depot/dev/client3/rdock/2013.1/src/exe/rbdock.cxx#4 $)

>  <Rbt.Library>
libRbt.so (2013.1, Build901 2013/11/27)

>  <Rbt.Parameter_File>
/home/malgorzata/Desktop/rDock_2013.1_src/data/scripts/hard_docking.prm

>  <Rbt.Receptor>
cavity.prm

>  <SCORE>
-20.0079

>  <SCORE.INTER>
-16.1671

>  <SCORE.INTER.CONST>
1

>  <SCORE.INTER.POLAR>
0

>  <SCORE.INTER.REPUL>
0

>  <SCORE.INTER.ROT>
7

>  <SCORE.INTER.VDW>
-28.5671

>  <SCORE.INTER.norm>
-0.475504

>  <SCORE.INTRA>
-3.23602

>  <SCORE.INTRA.DIHEDRAL>
-8.86928

>  <SCORE.INTRA.DIHEDRAL.0>
18.358

>  <SCORE.INTRA.POLAR>
0

>  <SCORE.INTRA.POLAR.0>
0

>  <SCORE.INTRA.REPUL>
0

>  <SCORE.INTRA.REPUL.0>
0

>  <SCORE.INTRA.VDW>
1.19862

>  <SCORE.INTRA.VDW.0>
-1.94569

>  <SCORE.INTRA.norm>
-0.095177

>  <SCORE.RESTR>
0.875567

>  <SCORE.RESTR.CAVITY>
0.875567

>  <SCORE.RESTR.norm>
0.025752

>  <SCORE.SYSTEM>
-1.48029

>  <SCORE.SYSTEM.CONST>
0

>  <SCORE.SYSTEM.DIHEDRAL>
0.824216

>  <SCORE.SYSTEM.POLAR>
-0.457465

>  <SCORE.SYSTEM.VDW>
-0.337018

>  <SCORE.SYSTEM.norm>
-0.0435379

>  <SCORE.heavy>
34

>  <SCORE.norm>
-0.588467

$$$$
RAL.pdb
  rDOCK(R)          3D
libRbt.so/2013.1/901 2013/11/27
 36 40  0  0  0  0  0  0  0  0999 V2000
   35.9252   -4.4705   17.0503 C   0  0  0  0  0  0
   36.2470   -3.8621   15.8645 C   0  0  0  0  0  0
   35.6630   -4.2108   14.6787 C   0  0  0  0  0  0
   36.0512   -3.5045   13.5677 O   0  0  0  0  0  0
   34.6857   -5.2126   14.6652 C   0  0  0  0  0  0
   34.3417   -5.7953   15.8600 C   0  0  0  0  0  0
   33.2761   -7.0217   16.1631 S   0  0  0  0  0  0
   33.4706   -7.0964   17.8382 C   0  0  0  0  0  0
   32.8048   -8.1119   18.7027 C   0  0  0  0  0  0
   32.3646   -9.2459   18.0482 C   0  0  0  0  0  0
   31.8148  -10.2690   18.8035 C   0  0  0  0  0  0
   31.6666  -10.1557   20.1718 C   0  0  0  0  0  0
   31.1056  -11.2404   20.8482 O   0  0  0  0  0  0
   32.1486   -9.0426   20.8288 C   0  0  0  0  0  0
   32.7138   -8.0289   20.0649 C   0  0  0  0  0  0
   34.9788   -5.4239   17.0782 C   0  0  0  0  0  0
   34.4921   -6.1970   18.2100 C   0  0  0  0  0  0
   34.9912   -6.0338   19.4882 C   0  0  0  0  0  0
   35.9765   -6.6930   19.8431 O   0  0  0  0  0  0
   34.3930   -5.1155   20.4635 C   0  0  0  0  0  0
   33.0874   -4.6906   20.3210 C   0  0  0  0  0  0
   32.4989   -3.8150   21.2129 C   0  0  0  0  0  0
   33.2612   -3.3255   22.2721 C   0  0  0  0  0  0
   34.5682   -3.7507   22.4294 C   0  0  0  0  0  0
   35.1246   -4.6503   21.5356 C   0  0  0  0  0  0
   32.9040   -2.4542   23.2583 O   0  0  0  0  0  0
   32.1914   -2.9986   24.3586 C   0  0  0  0  0  0
   32.0234   -1.9625   25.4379 C   0  0  0  0  0  0
   31.3962   -0.6569   25.3631 N   0  0  0  0  0  0
   31.5170    0.0051   26.6778 C   0  0  0  0  0  0
   31.0209    1.4651   26.6868 C   0  0  0  0  0  0
   29.5237    1.4261   26.3405 C   0  0  0  0  0  0
   29.4918    0.8876   24.8771 C   0  0  0  0  0  0
   29.9899   -0.5675   24.9240 C   0  0  0  0  0  0
   35.9547   -3.8816   12.7154 H   0  0  0  0  0  0
   30.9360  -11.1821   21.7679 H   0  0  0  0  0  0
  1  2  2  0  0  0
  1 16  1  0  0  0
  2  3  1  0  0  0
  3  4  1  0  0  0
  3  5  2  0  0  0
  4 35  1  0  0  0
  5  6  1  0  0  0
  6  7  1  0  0  0
  6 16  2  0  0  0
  7  8  1  0  0  0
  8  9  1  0  0  0
  8 17  2  0  0  0
  9 10  2  0  0  0
  9 15  1  0  0  0
 10 11  1  0  0  0
 11 12  2  0  0  0
 12 13  1  0  0  0
 12 14  1  0  0  0
 13 36  1  0  0  0
 14 15  2  0  0  0
 16 17  1  0  0  0
 17 18  1  0  0  0
 18 19  2  0  0  0
 18 20  1  0  0  0
 20 21  2  0  0  0
 20 25  1  0  0  0
 21 22  1  0  0  0
 22 23  2  0  0  0
 23 24  1  0  0  0
 23 26  1  0  0  0
 24 25  2  0  0  0
 26 27  1  0  0  0
 27 28  1  0  0  0
 28 29  1  0  0  0
 29 30  1  0  0  0
 29 34  1  0  0  0
 30 31  1  0  0  0
 31 32  1  0  0  0
 32 33  1  0  0  0
 33 34  1  0  0  0
M  END
>  <CHROM.0>
107.33833775,82.89605080,-59.50845632

>  <CHROM.1>
156.76784107,20.04725423,-175.97870905,92.26341176,20.64195002,81.53194645
172.76556924,57.82111837,-178.30586152,33.13815816,-4.78742816,20.32867977
-0.98864455,1.05644607,0.39832887

>  <FORMUL>
      RAL    C28 H27 N1 O4 S1

>  <HET>
 RAL  A 600      34

>  <HETNAM>
     RAL RALOXIFENE

>  <Name>
RAL.pdb

>  <RI>
0

>  <Rbt.Current_Directory>
/home/malgorzata/Desktop/rDOCK_IFD/Wyniki/6b_estrogen_receptor/IFD

>  <Rbt.Executable>
rbdock ($Id: //depot/dev/client3/rdock/2013.1/src/exe/rbdock.cxx#4 $)

>  <Rbt.Library>
libRbt.so (2013.1, Build901 2013/11/27)

>  <Rbt.Parameter_File>
/home/malgorzata/Desktop/rDock_2013.1_src/data/scripts/hard_docking.prm

>  <Rbt.Receptor>
cavity.prm

>  <SCORE>
-12.2062

>  <SCORE.INTER>
-11.7848

>  <SCORE.INTER.CONST>
1

>  <SCORE.INTER.POLAR>
-0.916515

>  <SCORE.INTER.REPUL>
0.00174551

>  <SCORE.INTER.ROT>
7

>  <SCORE.INTER.VDW>
-21.0774

>  <SCORE.INTER.norm>
-0.346612

>  <SCORE.INTRA>
-0.0532902

>  <SCORE.INTRA.DIHEDRAL>
2.54249

>  <SCORE.INTRA.DIHEDRAL.0>
18.358

>  <SCORE.INTRA.POLAR>
0

>  <SCORE.INTRA.POLAR.0>
0

>  <SCORE.INTRA.REPUL>
0

>  <SCORE.INTRA.REPUL.0>
0

>  <SCORE.INTRA.VDW>
-1.32454

>  <SCORE.INTRA.VDW.0>
-1.94569

>  <SCORE.INTRA.norm>
-0.00156736

>  <SCORE.RESTR>
1.46652

>  <SCORE.RESTR.CAVITY>
1.46652

>  <SCORE.RESTR.norm>
0.0431329

>  <SCORE.SYSTEM>
-1.83458

>  <SCORE.SYSTEM.CONST>
0

>  <SCORE.SYSTEM.DIHEDRAL>
0.82058

>  <SCORE.SYSTEM.POLAR>
-0.474342

>  <SCORE.SYSTEM.VDW>
-0.632108

>  <SCORE.SYSTEM.norm>
-0.0539582

>  <SCORE.heavy>
34

>  <SCORE.norm>
-0.359005

$$$$
