REMARK  3 active torsions:
REMARK  status: ('A' for Active; 'I' for Inactive)
REMARK    1  A    between atoms: C2_3  and  C6_7 
REMARK    2  A    between atoms: C9_10  and  C12_13 
REMARK    3  A    between atoms: C12_13  and  C14_15 
ROOT
HETATM    1  C6  FLP A 701      26.364  22.866  14.616  1.00 22.32     0.013 A 
HETATM    2  C7  FLP A 701      27.735  23.079  14.897  1.00 24.22     0.016 A 
HETATM    3  C8  FLP A 701      28.291  22.610  16.126  1.00 25.16     0.009 A 
HETATM    4  C9  FLP A 701      27.444  21.925  17.065  1.00 27.53    -0.041 A 
HETATM    5  C10 FLP A 701      26.099  21.731  16.776  1.00 25.73     0.051 A 
HETATM    6  C11 FLP A 701      25.555  22.186  15.571  1.00 26.42     0.128 A 
HETATM    7  F   FLP A 701      24.240  21.956  15.313  1.00 30.59    -0.205 F 
ENDROOT
BRANCH   1   8
HETATM    8  C2  FLP A 701      25.734  23.368  13.334  1.00 15.36    -0.023 A 
HETATM    9  C1  FLP A 701      24.930  22.534  12.563  1.00  9.77     0.012 A 
HETATM   10  C   FLP A 701      24.377  23.010  11.354  1.00  8.08     0.001 A 
HETATM   11  C5  FLP A 701      24.623  24.301  10.921  1.00 11.48     0.000 A 
HETATM   12  C4  FLP A 701      25.427  25.137  11.690  1.00 11.16     0.001 A 
HETATM   13  C3  FLP A 701      25.983  24.670  12.896  1.00 13.94     0.012 A 
ENDBRANCH   1   8
BRANCH   4  14
HETATM   14  C12 FLP A 701      28.006  21.320  18.336  1.00 27.44     0.115 C 
HETATM   15  C13 FLP A 701      29.497  21.621  18.461  1.00 27.63     0.026 C 
BRANCH  14  16
HETATM   16  C14 FLP A 701      27.773  19.811  18.282  1.00 27.04     0.181 C 
HETATM   17  O   FLP A 701      28.691  19.060  18.064  1.00 30.37    -0.647 OA
HETATM   18  O1  FLP A 701      26.574  19.315  18.441  1.00 25.86    -0.647 OA
ENDBRANCH  14  16
ENDBRANCH   4  14
TORSDOF 3
