REMARK  3 active torsions:
REMARK  status: ('A' for Active; 'I' for Inactive)
REMARK    1  A    between atoms: C2_3  and  C6_7 
REMARK    2  A    between atoms: C9_10  and  C12_13 
REMARK    3  A    between atoms: C12_13  and  C14_15 
ROOT
HETATM    1  C6  FLP A 701      26.128  22.622  14.695  1.00 22.32     0.013 A 
HETATM    2  C7  FLP A 701      25.265  21.907  15.560  1.00 24.22     0.016 A 
HETATM    3  C8  FLP A 701      25.765  21.388  16.793  1.00 25.16     0.009 A 
HETATM    4  C9  FLP A 701      27.143  21.602  17.140  1.00 27.53    -0.041 A 
HETATM    5  C10 FLP A 701      27.978  22.301  16.276  1.00 25.73     0.051 A 
HETATM    6  C11 FLP A 701      27.489  22.812  15.070  1.00 26.42     0.128 A 
HETATM    7  F   FLP A 701      28.330  23.512  14.263  1.00 30.59    -0.205 F 
ENDROOT
BRANCH   1   8
HETATM    8  C2  FLP A 701      25.641  23.167  13.369  1.00 15.36    -0.023 A 
HETATM    9  C1  FLP A 701      25.987  24.451  12.958  1.00  9.77     0.012 A 
HETATM   10  C   FLP A 701      25.498  24.955  11.733  1.00  8.08     0.001 A 
HETATM   11  C5  FLP A 701      24.675  24.186  10.929  1.00 11.48     0.000 A 
HETATM   12  C4  FLP A 701      24.328  22.902  11.337  1.00 11.16     0.001 A 
HETATM   13  C3  FLP A 701      24.811  22.393  12.557  1.00 13.94     0.012 A 
ENDBRANCH   1   8
BRANCH   4  14
HETATM   14  C12 FLP A 701      27.695  21.161  18.480  1.00 27.44     0.115 C 
HETATM   15  C13 FLP A 701      29.136  21.638  18.651  1.00 27.63     0.026 C 
BRANCH  14  16
HETATM   16  C14 FLP A 701      27.631  19.636  18.538  1.00 27.04     0.181 C 
HETATM   17  O   FLP A 701      26.572  19.067  18.435  1.00 30.37    -0.647 OA
HETATM   18  O1  FLP A 701      28.714  18.930  18.731  1.00 25.86    -0.647 OA
ENDBRANCH  14  16
ENDBRANCH   4  14
TORSDOF 3
