REMARK  3 active torsions:
REMARK  status: ('A' for Active; 'I' for Inactive)
REMARK    1  A    between atoms: C2_3  and  C6_7 
REMARK    2  A    between atoms: C9_10  and  C12_13 
REMARK    3  A    between atoms: C12_13  and  C14_15 
ROOT
HETATM    1  C6  FLP A 701      26.161  22.645  14.667  1.00 22.32     0.013 A 
HETATM    2  C7  FLP A 701      25.338  21.846  15.497  1.00 24.22     0.016 A 
HETATM    3  C8  FLP A 701      25.860  21.314  16.716  1.00 25.16     0.009 A 
HETATM    4  C9  FLP A 701      27.221  21.600  17.083  1.00 27.53    -0.041 A 
HETATM    5  C10 FLP A 701      28.016  22.380  16.252  1.00 25.73     0.051 A 
HETATM    6  C11 FLP A 701      27.504  22.905  15.061  1.00 26.42     0.128 A 
HETATM    7  F   FLP A 701      28.305  23.684  14.287  1.00 30.59    -0.205 F 
ENDROOT
BRANCH   1   8
HETATM    8  C2  FLP A 701      25.649  23.207  13.358  1.00 15.36    -0.023 A 
HETATM    9  C1  FLP A 701      25.962  24.506  12.972  1.00  9.77     0.012 A 
HETATM   10  C   FLP A 701      25.451  25.026  11.762  1.00  8.08     0.001 A 
HETATM   11  C5  FLP A 701      24.638  24.256  10.948  1.00 11.48     0.000 A 
HETATM   12  C4  FLP A 701      24.323  22.956  11.332  1.00 11.16     0.001 A 
HETATM   13  C3  FLP A 701      24.828  22.432  12.537  1.00 13.94     0.012 A 
ENDBRANCH   1   8
BRANCH   4  14
HETATM   14  C12 FLP A 701      27.790  21.145  18.411  1.00 27.44     0.115 C 
HETATM   15  C13 FLP A 701      29.233  21.620  18.567  1.00 27.63     0.026 C 
BRANCH  14  16
HETATM   16  C14 FLP A 701      27.727  19.619  18.453  1.00 27.04     0.181 C 
HETATM   17  O   FLP A 701      28.743  18.968  18.474  1.00 30.37    -0.647 OA
HETATM   18  O1  FLP A 701      26.577  18.999  18.436  1.00 25.86    -0.647 OA
ENDBRANCH  14  16
ENDBRANCH   4  14
TORSDOF 3
