REMARK  3 active torsions:
REMARK  status: ('A' for Active; 'I' for Inactive)
REMARK    1  A    between atoms: C2_3  and  C6_7 
REMARK    2  A    between atoms: C9_10  and  C12_13 
REMARK    3  A    between atoms: C12_13  and  C14_15 
ROOT
HETATM    1  C6  FLP A 701      26.218  22.755  14.611  1.00 22.32     0.013 A 
HETATM    2  C7  FLP A 701      25.445  21.875  15.408  1.00 24.22     0.016 A 
HETATM    3  C8  FLP A 701      25.989  21.350  16.620  1.00 25.16     0.009 A 
HETATM    4  C9  FLP A 701      27.320  21.725  17.015  1.00 27.53    -0.041 A 
HETATM    5  C10 FLP A 701      28.066  22.584  16.217  1.00 25.73     0.051 A 
HETATM    6  C11 FLP A 701      27.533  23.102  15.033  1.00 26.42     0.128 A 
HETATM    7  F   FLP A 701      28.285  23.959  14.292  1.00 30.59    -0.205 F 
ENDROOT
BRANCH   1   8
HETATM    8  C2  FLP A 701      25.684  23.314  13.310  1.00 15.36    -0.023 A 
HETATM    9  C1  FLP A 701      25.963  24.624  12.931  1.00  9.77     0.012 A 
HETATM   10  C   FLP A 701      25.431  25.139  11.729  1.00  8.08     0.001 A 
HETATM   11  C5  FLP A 701      24.631  24.356  10.915  1.00 11.48     0.000 A 
HETATM   12  C4  FLP A 701      24.350  23.046  11.291  1.00 11.16     0.001 A 
HETATM   13  C3  FLP A 701      24.877  22.525  12.489  1.00 13.94     0.012 A 
ENDBRANCH   1   8
BRANCH   4  14
HETATM   14  C12 FLP A 701      27.903  21.276  18.339  1.00 27.44     0.115 C 
HETATM   15  C13 FLP A 701      29.394  21.600  18.406  1.00 27.63     0.026 C 
BRANCH  14  16
HETATM   16  C14 FLP A 701      27.682  19.770  18.466  1.00 27.04     0.181 C 
HETATM   17  O   FLP A 701      26.573  19.330  18.645  1.00 30.37    -0.647 OA
HETATM   18  O1  FLP A 701      28.691  18.941  18.413  1.00 25.86    -0.647 OA
ENDBRANCH  14  16
ENDBRANCH   4  14
TORSDOF 3
