REMARK  3 active torsions:
REMARK  status: ('A' for Active; 'I' for Inactive)
REMARK    1  A    between atoms: C2_3  and  C6_7 
REMARK    2  A    between atoms: C9_10  and  C12_13 
REMARK    3  A    between atoms: C12_13  and  C14_15 
ROOT
HETATM    1  C6  FLP A 701      26.399  22.751  14.672  1.00 22.32     0.013 A 
HETATM    2  C7  FLP A 701      27.756  23.021  14.973  1.00 24.22     0.016 A 
HETATM    3  C8  FLP A 701      28.313  22.574  16.211  1.00 25.16     0.009 A 
HETATM    4  C9  FLP A 701      27.482  21.853  17.136  1.00 27.53    -0.041 A 
HETATM    5  C10 FLP A 701      26.151  21.603  16.827  1.00 25.73     0.051 A 
HETATM    6  C11 FLP A 701      25.606  22.036  15.614  1.00 26.42     0.128 A 
HETATM    7  F   FLP A 701      24.306  21.751  15.337  1.00 30.59    -0.205 F 
ENDROOT
BRANCH   1   8
HETATM    8  C2  FLP A 701      25.769  23.227  13.380  1.00 15.36    -0.023 A 
HETATM    9  C1  FLP A 701      24.944  22.386  12.640  1.00  9.77     0.012 A 
HETATM   10  C   FLP A 701      24.389  22.836  11.422  1.00  8.08     0.001 A 
HETATM   11  C5  FLP A 701      24.655  24.110  10.950  1.00 11.48     0.000 A 
HETATM   12  C4  FLP A 701      25.479  24.953  11.688  1.00 11.16     0.001 A 
HETATM   13  C3  FLP A 701      26.037  24.511  12.904  1.00 13.94     0.012 A 
ENDBRANCH   1   8
BRANCH   4  14
HETATM   14  C12 FLP A 701      28.049  21.272  18.415  1.00 27.44     0.115 C 
HETATM   15  C13 FLP A 701      29.556  21.509  18.491  1.00 27.63     0.026 C 
BRANCH  14  16
HETATM   16  C14 FLP A 701      27.747  19.774  18.426  1.00 27.04     0.181 C 
HETATM   17  O   FLP A 701      28.583  18.981  18.069  1.00 30.37    -0.647 OA
HETATM   18  O1  FLP A 701      26.572  19.334  18.792  1.00 25.86    -0.647 OA
ENDBRANCH  14  16
ENDBRANCH   4  14
TORSDOF 3
