REMARK  3 active torsions:
REMARK  status: ('A' for Active; 'I' for Inactive)
REMARK    1  A    between atoms: C2_3  and  C6_7 
REMARK    2  A    between atoms: C9_10  and  C12_13 
REMARK    3  A    between atoms: C12_13  and  C14_15 
ROOT
HETATM    1  C6  FLP A 701      26.300  22.791  14.687  1.00 22.32     0.013 A 
HETATM    2  C7  FLP A 701      27.666  23.007  14.988  1.00 24.22     0.016 A 
HETATM    3  C8  FLP A 701      28.200  22.556  16.234  1.00 25.16     0.009 A 
HETATM    4  C9  FLP A 701      27.337  21.886  17.168  1.00 27.53    -0.041 A 
HETATM    5  C10 FLP A 701      25.996  21.689  16.859  1.00 25.73     0.051 A 
HETATM    6  C11 FLP A 701      25.474  22.127  15.638  1.00 26.42     0.128 A 
HETATM    7  F   FLP A 701      24.163  21.894  15.361  1.00 30.59    -0.205 F 
ENDROOT
BRANCH   1   8
HETATM    8  C2  FLP A 701      25.693  23.275  13.387  1.00 15.36    -0.023 A 
HETATM    9  C1  FLP A 701      24.868  22.444  12.636  1.00  9.77     0.012 A 
HETATM   10  C   FLP A 701      24.336  22.900  11.410  1.00  8.08     0.001 A 
HETATM   11  C5  FLP A 701      24.625  24.170  10.941  1.00 11.48     0.000 A 
HETATM   12  C4  FLP A 701      25.450  25.003  11.690  1.00 11.16     0.001 A 
HETATM   13  C3  FLP A 701      25.984  24.555  12.913  1.00 13.94     0.012 A 
ENDBRANCH   1   8
BRANCH   4  14
HETATM   14  C12 FLP A 701      27.875  21.300  18.457  1.00 27.44     0.115 C 
HETATM   15  C13 FLP A 701      29.365  21.602  18.604  1.00 27.63     0.026 C 
BRANCH  14  16
HETATM   16  C14 FLP A 701      27.641  19.790  18.423  1.00 27.04     0.181 C 
HETATM   17  O   FLP A 701      26.574  19.333  18.749  1.00 30.37    -0.647 OA
HETATM   18  O1  FLP A 701      28.600  18.975  18.072  1.00 25.86    -0.647 OA
ENDBRANCH  14  16
ENDBRANCH   4  14
TORSDOF 3
