REMARK  5 active torsions:
REMARK  status: ('A' for Active; 'I' for Inactive)
REMARK    1  A    between atoms: C2_22137  and  C11_22146 
REMARK    2  A    between atoms: C3_22138  and  C4_22139 
REMARK    3  A    between atoms: C5_22140  and  N1_22152 
REMARK    4  A    between atoms: C8_22143  and  S1_22161 
REMARK    5  A    between atoms: N3_22154  and  S1_22161 
ROOT
HETATM    1  C1  S58 A 701      20.642  22.393  14.476  1.00  9.00     0.044 A 
HETATM    2  C2  S58 A 701      21.999  22.287  14.497  1.00  8.39     0.084 A 
HETATM    3  C3  S58 A 701      20.148  21.604  15.642  1.00  9.72     0.174 A 
HETATM    4  N1  S58 A 701      22.369  21.522  15.580  1.00 11.18    -0.230 N 
HETATM    5  N2  S58 A 701      21.185  21.126  16.275  1.00 11.04    -0.161 NA
ENDROOT
BRANCH   4   6
HETATM    6  C5  S58 A 701      23.600  21.415  16.173  1.00 11.70     0.083 A 
HETATM    7  C6  S58 A 701      24.146  22.575  16.736  1.00 10.08     0.020 A 
HETATM    8  C7  S58 A 701      25.362  22.506  17.400  1.00 13.76     0.014 A 
HETATM    9  C8  S58 A 701      26.031  21.264  17.503  1.00 13.58     0.103 A 
HETATM   10  C9  S58 A 701      25.480  20.102  16.939  1.00 15.22     0.014 A 
HETATM   11  C10 S58 A 701      24.257  20.180  16.267  1.00 14.22     0.020 A 
BRANCH   9  12
HETATM   12  S1  S58 A 701      27.623  21.160  18.387  1.00 11.93     0.258 S 
HETATM   13  O1  S58 A 701      28.403  20.107  17.817  1.00  9.06    -0.201 OA
HETATM   14  O2  S58 A 701      27.346  20.866  19.765  1.00 10.85    -0.201 OA
BRANCH  12  15
HETATM   15  N3  S58 A 701      28.416  22.719  18.241  1.00  8.29    -0.324 N 
HETATM   16 1HN3 S58 A 701      29.261  22.878  18.705  1.00 17.00     0.169 HD
HETATM   17 2HN3 S58 A 701      28.014  23.428  17.694  1.00 17.00     0.169 HD
ENDBRANCH  12  15
ENDBRANCH   9  12
ENDBRANCH   4   6
BRANCH   2  18
HETATM   18  C11 S58 A 701      22.911  22.877  13.470  1.00  5.71     0.018 A 
HETATM   19  C12 S58 A 701      22.435  23.088  12.150  1.00  5.31     0.002 A 
HETATM   20  C13 S58 A 701      23.227  23.778  11.214  1.00  2.00     0.007 A 
HETATM   21  C14 S58 A 701      24.479  24.260  11.586  1.00  2.00     0.035 A 
HETATM   22  C15 S58 A 701      24.967  24.030  12.877  1.00  2.25     0.007 A 
HETATM   23 BR1  S58 A 701      25.414  25.345  10.421  1.00  4.05    -0.049 Br
HETATM   24  C16 S58 A 701      24.181  23.336  13.826  1.00  2.30     0.002 A 
ENDBRANCH   2  18
BRANCH   3  25
HETATM   25  C4  S58 A 701      18.732  21.305  16.037  1.00  8.58     0.437 C 
HETATM   26  F1  S58 A 701      17.989  21.096  14.922  1.00  2.57    -0.164 F 
HETATM   27  F2  S58 A 701      18.243  22.312  16.778  1.00  8.03    -0.164 F 
HETATM   28  F3  S58 A 701      18.736  20.186  16.768  1.00 10.66    -0.164 F 
ENDBRANCH   3  25
TORSDOF 5
