REMARK  5 active torsions:
REMARK  status: ('A' for Active; 'I' for Inactive)
REMARK    1  A    between atoms: C2_22137  and  C11_22146 
REMARK    2  A    between atoms: C3_22138  and  C4_22139 
REMARK    3  A    between atoms: C5_22140  and  N1_22152 
REMARK    4  A    between atoms: C8_22143  and  S1_22161 
REMARK    5  A    between atoms: N3_22154  and  S1_22161 
ROOT
HETATM    1  C1  S58 A 701      20.556  22.352  14.479  1.00  9.00     0.044 A 
HETATM    2  C2  S58 A 701      21.914  22.276  14.545  1.00  8.39     0.084 A 
HETATM    3  C3  S58 A 701      20.042  21.614  15.669  1.00  9.72     0.174 A 
HETATM    4  N1  S58 A 701      22.265  21.576  15.677  1.00 11.18    -0.230 N 
HETATM    5  N2  S58 A 701      21.068  21.192  16.357  1.00 11.04    -0.161 NA
ENDROOT
BRANCH   4   6
HETATM    6  C5  S58 A 701      23.479  21.526  16.312  1.00 11.70     0.083 A 
HETATM    7  C6  S58 A 701      24.090  20.271  16.431  1.00 10.08     0.020 A 
HETATM    8  C7  S58 A 701      25.346  20.175  17.012  1.00 13.76     0.014 A 
HETATM    9  C8  S58 A 701      25.994  21.345  17.471  1.00 13.58     0.103 A 
HETATM   10  C9  S58 A 701      25.379  22.602  17.348  1.00 15.22     0.014 A 
HETATM   11  C10 S58 A 701      24.112  22.691  16.766  1.00 14.22     0.020 A 
BRANCH   9  12
HETATM   12  S1  S58 A 701      27.652  21.232  18.223  1.00 11.93     0.258 S 
HETATM   13  O1  S58 A 701      28.412  20.242  17.527  1.00  9.06    -0.201 OA
HETATM   14  O2  S58 A 701      27.490  20.842  19.595  1.00 10.85    -0.201 OA
BRANCH  12  15
HETATM   15  N3  S58 A 701      28.391  22.820  18.122  1.00  8.29    -0.324 N 
HETATM   16 1HN3 S58 A 701      28.002  23.500  17.538  1.00 17.00     0.169 HD
HETATM   17 2HN3 S58 A 701      29.192  23.027  18.651  1.00 17.00     0.169 HD
ENDBRANCH  12  15
ENDBRANCH   9  12
ENDBRANCH   4   6
BRANCH   2  18
HETATM   18  C11 S58 A 701      22.845  22.831  13.516  1.00  5.71     0.018 A 
HETATM   19  C12 S58 A 701      22.382  23.034  12.191  1.00  5.31     0.002 A 
HETATM   20  C13 S58 A 701      23.195  23.693  11.250  1.00  2.00     0.007 A 
HETATM   21  C14 S58 A 701      24.455  24.153  11.623  1.00  2.00     0.035 A 
HETATM   22  C15 S58 A 701      24.930  23.930  12.920  1.00  2.25     0.007 A 
HETATM   23 BR1  S58 A 701      25.421  25.200  10.450  1.00  4.05    -0.049 Br
HETATM   24  C16 S58 A 701      24.122  23.267  13.874  1.00  2.30     0.002 A 
ENDBRANCH   2  18
BRANCH   3  25
HETATM   25  C4  S58 A 701      18.621  21.307  16.037  1.00  8.58     0.437 C 
HETATM   26  F1  S58 A 701      18.104  22.346  16.741  1.00  2.57    -0.164 F 
HETATM   27  F2  S58 A 701      18.566  20.160  16.732  1.00  8.03    -0.164 F 
HETATM   28  F3  S58 A 701      17.924  21.166  14.904  1.00 10.66    -0.164 F 
ENDBRANCH   3  25
TORSDOF 5
