REMARK  5 active torsions:
REMARK  status: ('A' for Active; 'I' for Inactive)
REMARK    1  A    between atoms: C2_22137  and  C11_22146 
REMARK    2  A    between atoms: C3_22138  and  C4_22139 
REMARK    3  A    between atoms: C5_22140  and  N1_22152 
REMARK    4  A    between atoms: C8_22143  and  S1_22161 
REMARK    5  A    between atoms: N3_22154  and  S1_22161 
ROOT
HETATM    1  C1  S58 A 701      20.574  22.365  14.476  1.00  9.00     0.044 A 
HETATM    2  C2  S58 A 701      21.932  22.287  14.545  1.00  8.39     0.084 A 
HETATM    3  C3  S58 A 701      20.057  21.625  15.663  1.00  9.72     0.174 A 
HETATM    4  N1  S58 A 701      22.280  21.583  15.675  1.00 11.18    -0.230 N 
HETATM    5  N2  S58 A 701      21.081  21.199  16.352  1.00 11.04    -0.161 NA
ENDROOT
BRANCH   4   6
HETATM    6  C5  S58 A 701      23.493  21.529  16.312  1.00 11.70     0.083 A 
HETATM    7  C6  S58 A 701      24.083  20.268  16.466  1.00 10.08     0.020 A 
HETATM    8  C7  S58 A 701      25.336  20.167  17.050  1.00 13.76     0.014 A 
HETATM    9  C8  S58 A 701      26.004  21.338  17.478  1.00 13.58     0.103 A 
HETATM   10  C9  S58 A 701      25.410  22.602  17.321  1.00 15.22     0.014 A 
HETATM   11  C10 S58 A 701      24.145  22.696  16.737  1.00 14.22     0.020 A 
BRANCH   9  12
HETATM   12  S1  S58 A 701      27.659  21.217  18.235  1.00 11.93     0.258 S 
HETATM   13  O1  S58 A 701      28.409  20.210  17.553  1.00  9.06    -0.201 OA
HETATM   14  O2  S58 A 701      27.490  20.847  19.612  1.00 10.85    -0.201 OA
BRANCH  12  15
HETATM   15  N3  S58 A 701      28.415  22.796  18.114  1.00  8.29    -0.324 N 
HETATM   16 1HN3 S58 A 701      29.209  22.996  18.649  1.00 17.00     0.169 HD
HETATM   17 2HN3 S58 A 701      28.045  23.476  17.511  1.00 17.00     0.169 HD
ENDBRANCH  12  15
ENDBRANCH   9  12
ENDBRANCH   4   6
BRANCH   2  18
HETATM   18  C11 S58 A 701      22.866  22.844  13.519  1.00  5.71     0.018 A 
HETATM   19  C12 S58 A 701      22.435  22.964  12.173  1.00  5.31     0.002 A 
HETATM   20  C13 S58 A 701      23.243  23.622  11.227  1.00  2.00     0.007 A 
HETATM   21  C14 S58 A 701      24.466  24.161  11.616  1.00  2.00     0.035 A 
HETATM   22  C15 S58 A 701      24.911  24.020  12.935  1.00  2.25     0.007 A 
HETATM   23 BR1  S58 A 701      25.416  25.204  10.425  1.00  4.05    -0.049 Br
HETATM   24  C16 S58 A 701      24.108  23.359  13.894  1.00  2.30     0.002 A 
ENDBRANCH   2  18
BRANCH   3  25
HETATM   25  C4  S58 A 701      18.635  21.319  16.027  1.00  8.58     0.437 C 
HETATM   26  F1  S58 A 701      17.920  21.090  14.897  1.00  2.57    -0.164 F 
HETATM   27  F2  S58 A 701      18.119  22.329  16.745  1.00  8.03    -0.164 F 
HETATM   28  F3  S58 A 701      18.631  20.207  16.772  1.00 10.66    -0.164 F 
ENDBRANCH   3  25
TORSDOF 5
