REMARK  5 active torsions:
REMARK  status: ('A' for Active; 'I' for Inactive)
REMARK    1  A    between atoms: C2_22137  and  C11_22146 
REMARK    2  A    between atoms: C3_22138  and  C4_22139 
REMARK    3  A    between atoms: C5_22140  and  N1_22152 
REMARK    4  A    between atoms: C8_22143  and  S1_22161 
REMARK    5  A    between atoms: N3_22154  and  S1_22161 
ROOT
HETATM    1  C1  S58 A 701      24.709  21.063  17.524  1.00  9.00     0.044 A 
HETATM    2  C2  S58 A 701      24.128  21.476  16.363  1.00  8.39     0.084 A 
HETATM    3  C3  S58 A 701      26.171  20.964  17.242  1.00  9.72     0.174 A 
HETATM    4  N1  S58 A 701      25.109  21.654  15.414  1.00 11.18    -0.230 N 
HETATM    5  N2  S58 A 701      26.370  21.335  16.006  1.00 11.04    -0.161 NA
ENDROOT
BRANCH   4   6
HETATM    6  C5  S58 A 701      25.043  22.347  14.232  1.00 11.70     0.083 A 
HETATM    7  C6  S58 A 701      24.187  21.849  13.242  1.00 10.08     0.020 A 
HETATM    8  C7  S58 A 701      24.041  22.546  12.052  1.00 13.76     0.014 A 
HETATM    9  C8  S58 A 701      24.754  23.752  11.857  1.00 13.58     0.103 A 
HETATM   10  C9  S58 A 701      25.610  24.249  12.854  1.00 15.22     0.014 A 
HETATM   11  C10 S58 A 701      25.757  23.539  14.048  1.00 14.22     0.020 A 
BRANCH   9  12
HETATM   12  S1  S58 A 701      24.557  24.684  10.302  1.00 11.93     0.258 S 
HETATM   13  O1  S58 A 701      23.196  24.598   9.877  1.00  9.06    -0.201 OA
HETATM   14  O2  S58 A 701      25.412  24.086   9.316  1.00 10.85    -0.201 OA
BRANCH  12  15
HETATM   15  N3  S58 A 701      25.046  26.341  10.610  1.00  8.29    -0.324 N 
HETATM   16 1HN3 S58 A 701      24.971  26.710  11.512  1.00 17.00     0.169 HD
HETATM   17 2HN3 S58 A 701      25.396  26.896   9.880  1.00 17.00     0.169 HD
ENDBRANCH  12  15
ENDBRANCH   9  12
ENDBRANCH   4   6
BRANCH   2  18
HETATM   18  C11 S58 A 701      22.657  21.654  16.169  1.00  5.71     0.018 A 
HETATM   19  C12 S58 A 701      22.184  22.686  15.319  1.00  5.31     0.002 A 
HETATM   20  C13 S58 A 701      20.814  22.774  15.006  1.00  2.00     0.007 A 
HETATM   21  C14 S58 A 701      19.923  21.841  15.529  1.00  2.00     0.035 A 
HETATM   22  C15 S58 A 701      20.378  20.838  16.392  1.00  2.25     0.007 A 
HETATM   23 BR1  S58 A 701      18.171  21.836  14.945  1.00  4.05    -0.049 Br
HETATM   24  C16 S58 A 701      21.752  20.741  16.715  1.00  2.30     0.002 A 
ENDBRANCH   2  18
BRANCH   3  25
HETATM   25  C4  S58 A 701      27.264  20.465  18.139  1.00  8.58     0.437 C 
HETATM   26  F1  S58 A 701      28.014  19.554  17.469  1.00  2.57    -0.164 F 
HETATM   27  F2  S58 A 701      26.736  19.948  19.259  1.00  8.03    -0.164 F 
HETATM   28  F3  S58 A 701      28.039  21.507  18.461  1.00 10.66    -0.164 F 
ENDBRANCH   3  25
TORSDOF 5
