REMARK  5 active torsions:
REMARK  status: ('A' for Active; 'I' for Inactive)
REMARK    1  A    between atoms: C2_22137  and  C11_22146 
REMARK    2  A    between atoms: C3_22138  and  C4_22139 
REMARK    3  A    between atoms: C5_22140  and  N1_22152 
REMARK    4  A    between atoms: C8_22143  and  S1_22161 
REMARK    5  A    between atoms: N3_22154  and  S1_22161 
ROOT
HETATM    1  C1  S58 A 701      24.636  21.006  17.683  1.00  9.00     0.044 A 
HETATM    2  C2  S58 A 701      24.133  21.377  16.474  1.00  8.39     0.084 A 
HETATM    3  C3  S58 A 701      26.121  21.075  17.553  1.00  9.72     0.174 A 
HETATM    4  N1  S58 A 701      25.179  21.683  15.632  1.00 11.18    -0.230 N 
HETATM    5  N2  S58 A 701      26.401  21.493  16.348  1.00 11.04    -0.161 NA
ENDROOT
BRANCH   4   6
HETATM    6  C5  S58 A 701      25.156  22.390  14.458  1.00 11.70     0.083 A 
HETATM    7  C6  S58 A 701      24.410  21.855  13.400  1.00 10.08     0.020 A 
HETATM    8  C7  S58 A 701      24.307  22.562  12.211  1.00 13.76     0.014 A 
HETATM    9  C8  S58 A 701      24.952  23.814  12.084  1.00 13.58     0.103 A 
HETATM   10  C9  S58 A 701      25.698  24.348  13.148  1.00 15.22     0.014 A 
HETATM   11  C10 S58 A 701      25.802  23.629  14.341  1.00 14.22     0.020 A 
BRANCH   9  12
HETATM   12  S1  S58 A 701      24.810  24.757  10.530  1.00 11.93     0.258 S 
HETATM   13  O1  S58 A 701      23.489  24.601  10.009  1.00  9.06    -0.201 OA
HETATM   14  O2  S58 A 701      25.765  24.224   9.600  1.00 10.85    -0.201 OA
BRANCH  12  15
HETATM   15  N3  S58 A 701      25.181  26.435  10.891  1.00  8.29    -0.324 N 
HETATM   16 1HN3 S58 A 701      25.508  27.022  10.182  1.00 17.00     0.169 HD
HETATM   17 2HN3 S58 A 701      25.058  26.783  11.800  1.00 17.00     0.169 HD
ENDBRANCH  12  15
ENDBRANCH   9  12
ENDBRANCH   4   6
BRANCH   2  18
HETATM   18  C11 S58 A 701      22.678  21.396  16.130  1.00  5.71     0.018 A 
HETATM   19  C12 S58 A 701      21.800  20.477  16.759  1.00  5.31     0.002 A 
HETATM   20  C13 S58 A 701      20.410  20.579  16.563  1.00  2.00     0.007 A 
HETATM   21  C14 S58 A 701      19.896  21.587  15.752  1.00  2.00     0.035 A 
HETATM   22  C15 S58 A 701      20.759  22.478  15.104  1.00  2.25     0.007 A 
HETATM   23 BR1  S58 A 701      18.070  21.843  15.672  1.00  4.05    -0.049 Br
HETATM   24  C16 S58 A 701      22.158  22.385  15.293  1.00  2.30     0.002 A 
ENDBRANCH   2  18
BRANCH   3  25
HETATM   25  C4  S58 A 701      27.167  20.682  18.552  1.00  8.58     0.437 C 
HETATM   26  F1  S58 A 701      26.566  20.144  19.643  1.00  2.57    -0.164 F 
HETATM   27  F2  S58 A 701      27.917  21.748  18.873  1.00  8.03    -0.164 F 
HETATM   28  F3  S58 A 701      27.947  19.753  17.988  1.00 10.66    -0.164 F 
ENDBRANCH   3  25
TORSDOF 5
