REMARK  5 active torsions:
REMARK  status: ('A' for Active; 'I' for Inactive)
REMARK    1  A    between atoms: C2_22137  and  C11_22146 
REMARK    2  A    between atoms: C3_22138  and  C4_22139 
REMARK    3  A    between atoms: C5_22140  and  N1_22152 
REMARK    4  A    between atoms: C8_22143  and  S1_22161 
REMARK    5  A    between atoms: N3_22154  and  S1_22161 
ROOT
HETATM    1  C1  S58 A 701      24.671  21.200  17.586  1.00  9.00     0.044 A 
HETATM    2  C2  S58 A 701      24.112  21.479  16.377  1.00  8.39     0.084 A 
HETATM    3  C3  S58 A 701      26.146  21.315  17.396  1.00  9.72     0.174 A 
HETATM    4  N1  S58 A 701      25.114  21.770  15.479  1.00 11.18    -0.230 N 
HETATM    5  N2  S58 A 701      26.367  21.668  16.159  1.00 11.04    -0.161 NA
ENDROOT
BRANCH   4   6
HETATM    6  C5  S58 A 701      25.023  22.402  14.267  1.00 11.70     0.083 A 
HETATM    7  C6  S58 A 701      24.225  21.799  13.286  1.00 10.08     0.020 A 
HETATM    8  C7  S58 A 701      24.053  22.430  12.063  1.00 13.76     0.014 A 
HETATM    9  C8  S58 A 701      24.681  23.675  11.824  1.00 13.58     0.103 A 
HETATM   10  C9  S58 A 701      25.479  24.277  12.811  1.00 15.22     0.014 A 
HETATM   11  C10 S58 A 701      25.652  23.634  14.039  1.00 14.22     0.020 A 
BRANCH   9  12
HETATM   12  S1  S58 A 701      24.449  24.519  10.225  1.00 11.93     0.258 S 
HETATM   13  O1  S58 A 701      25.406  24.017   9.290  1.00  9.06    -0.201 OA
HETATM   14  O2  S58 A 701      24.665  25.924  10.430  1.00 10.85    -0.201 OA
BRANCH  12  15
HETATM   15  N3  S58 A 701      22.800  24.224   9.702  1.00  8.29    -0.324 N 
HETATM   16 1HN3 S58 A 701      22.078  24.209  10.360  1.00 17.00     0.169 HD
HETATM   17 2HN3 S58 A 701      22.602  24.077   8.752  1.00 17.00     0.169 HD
ENDBRANCH  12  15
ENDBRANCH   9  12
ENDBRANCH   4   6
BRANCH   2  18
HETATM   18  C11 S58 A 701      22.646  21.423  16.088  1.00  5.71     0.018 A 
HETATM   19  C12 S58 A 701      21.836  20.475  16.762  1.00  5.31     0.002 A 
HETATM   20  C13 S58 A 701      20.436  20.508  16.616  1.00  2.00     0.007 A 
HETATM   21  C14 S58 A 701      19.846  21.479  15.811  1.00  2.00     0.035 A 
HETATM   22  C15 S58 A 701      20.641  22.398  15.118  1.00  2.25     0.007 A 
HETATM   23 BR1  S58 A 701      18.008  21.647  15.795  1.00  4.05    -0.049 Br
HETATM   24  C16 S58 A 701      22.049  22.374  15.257  1.00  2.30     0.002 A 
ENDBRANCH   2  18
BRANCH   3  25
HETATM   25  C4  S58 A 701      27.241  21.021  18.378  1.00  8.58     0.437 C 
HETATM   26  F1  S58 A 701      27.990  22.137  18.563  1.00  2.57    -0.164 F 
HETATM   27  F2  S58 A 701      27.983  19.992  17.940  1.00  8.03    -0.164 F 
HETATM   28  F3  S58 A 701      26.672  20.686  19.541  1.00 10.66    -0.164 F 
ENDBRANCH   3  25
TORSDOF 5
