REMARK  5 active torsions:
REMARK  status: ('A' for Active; 'I' for Inactive)
REMARK    1  A    between atoms: C2_22137  and  C11_22146 
REMARK    2  A    between atoms: C3_22138  and  C4_22139 
REMARK    3  A    between atoms: C5_22140  and  N1_22152 
REMARK    4  A    between atoms: C8_22143  and  S1_22161 
REMARK    5  A    between atoms: N3_22154  and  S1_22161 
ROOT
HETATM    1  C1  S58 A 701      24.588  21.140  17.537  1.00  9.00     0.044 A 
HETATM    2  C2  S58 A 701      24.055  21.462  16.326  1.00  8.39     0.084 A 
HETATM    3  C3  S58 A 701      26.068  21.220  17.372  1.00  9.72     0.174 A 
HETATM    4  N1  S58 A 701      25.079  21.747  15.451  1.00 11.18    -0.230 N 
HETATM    5  N2  S58 A 701      26.318  21.596  16.148  1.00 11.04    -0.161 NA
ENDROOT
BRANCH   4   6
HETATM    6  C5  S58 A 701      25.024  22.410  14.253  1.00 11.70     0.083 A 
HETATM    7  C6  S58 A 701      24.266  21.827  13.230  1.00 10.08     0.020 A 
HETATM    8  C7  S58 A 701      24.130  22.488  12.018  1.00 13.76     0.014 A 
HETATM    9  C8  S58 A 701      24.755  23.743  11.834  1.00 13.58     0.103 A 
HETATM   10  C9  S58 A 701      25.513  24.326  12.863  1.00 15.22     0.014 A 
HETATM   11  C10 S58 A 701      25.650  23.652  14.079  1.00 14.22     0.020 A 
BRANCH   9  12
HETATM   12  S1  S58 A 701      24.570  24.627  10.250  1.00 11.93     0.258 S 
HETATM   13  O1  S58 A 701      23.197  24.599   9.857  1.00  9.06    -0.201 OA
HETATM   14  O2  S58 A 701      25.369  23.949   9.268  1.00 10.85    -0.201 OA
BRANCH  12  15
HETATM   15  N3  S58 A 701      25.153  26.267  10.484  1.00  8.29    -0.324 N 
HETATM   16 1HN3 S58 A 701      25.044  26.700  11.353  1.00 17.00     0.169 HD
HETATM   17 2HN3 S58 A 701      25.589  26.746   9.747  1.00 17.00     0.169 HD
ENDBRANCH  12  15
ENDBRANCH   9  12
ENDBRANCH   4   6
BRANCH   2  18
HETATM   18  C11 S58 A 701      22.593  21.452  16.013  1.00  5.71     0.018 A 
HETATM   19  C12 S58 A 701      21.743  20.527  16.671  1.00  5.31     0.002 A 
HETATM   20  C13 S58 A 701      20.348  20.604  16.502  1.00  2.00     0.007 A 
HETATM   21  C14 S58 A 701      19.801  21.594  15.691  1.00  2.00     0.035 A 
HETATM   22  C15 S58 A 701      20.635  22.491  15.015  1.00  2.25     0.007 A 
HETATM   23 BR1  S58 A 701      17.969  21.819  15.647  1.00  4.05    -0.049 Br
HETATM   24  C16 S58 A 701      22.039  22.423  15.176  1.00  2.30     0.002 A 
ENDBRANCH   2  18
BRANCH   3  25
HETATM   25  C4  S58 A 701      27.139  20.874  18.363  1.00  8.58     0.437 C 
HETATM   26  F1  S58 A 701      26.565  20.507  19.536  1.00  2.57    -0.164 F 
HETATM   27  F2  S58 A 701      27.969  21.916  18.521  1.00  8.03    -0.164 F 
HETATM   28  F3  S58 A 701      27.829  19.836  17.878  1.00 10.66    -0.164 F 
ENDBRANCH   3  25
TORSDOF 5
