REMARK  5 active torsions:
REMARK  status: ('A' for Active; 'I' for Inactive)
REMARK    1  A    between atoms: C2_22137  and  C11_22146 
REMARK    2  A    between atoms: C3_22138  and  C4_22139 
REMARK    3  A    between atoms: C5_22140  and  N1_22152 
REMARK    4  A    between atoms: C8_22143  and  S1_22161 
REMARK    5  A    between atoms: N3_22154  and  S1_22161 
ROOT
HETATM    1  C1  S58 A 701      24.672  21.227  17.610  1.00  9.00     0.044 A 
HETATM    2  C2  S58 A 701      24.112  21.504  16.399  1.00  8.39     0.084 A 
HETATM    3  C3  S58 A 701      26.147  21.341  17.420  1.00  9.72     0.174 A 
HETATM    4  N1  S58 A 701      25.115  21.794  15.502  1.00 11.18    -0.230 N 
HETATM    5  N2  S58 A 701      26.368  21.693  16.182  1.00 11.04    -0.161 NA
ENDROOT
BRANCH   4   6
HETATM    6  C5  S58 A 701      25.024  22.424  14.288  1.00 11.70     0.083 A 
HETATM    7  C6  S58 A 701      24.290  21.781  13.283  1.00 10.08     0.020 A 
HETATM    8  C7  S58 A 701      24.118  22.406  12.057  1.00 13.76     0.014 A 
HETATM    9  C8  S58 A 701      24.683  23.684  11.840  1.00 13.58     0.103 A 
HETATM   10  C9  S58 A 701      25.418  24.327  12.850  1.00 15.22     0.014 A 
HETATM   11  C10 S58 A 701      25.591  23.689  14.081  1.00 14.22     0.020 A 
BRANCH   9  12
HETATM   12  S1  S58 A 701      24.451  24.520  10.236  1.00 11.93     0.258 S 
HETATM   13  O1  S58 A 701      25.407  24.013   9.303  1.00  9.06    -0.201 OA
HETATM   14  O2  S58 A 701      24.667  25.926  10.434  1.00 10.85    -0.201 OA
BRANCH  12  15
HETATM   15  N3  S58 A 701      22.802  24.223   9.714  1.00  8.29    -0.324 N 
HETATM   16 1HN3 S58 A 701      22.613  24.068   8.768  1.00 17.00     0.169 HD
HETATM   17 2HN3 S58 A 701      22.071  24.209  10.370  1.00 17.00     0.169 HD
ENDBRANCH  12  15
ENDBRANCH   9  12
ENDBRANCH   4   6
BRANCH   2  18
HETATM   18  C11 S58 A 701      22.647  21.448  16.110  1.00  5.71     0.018 A 
HETATM   19  C12 S58 A 701      21.842  20.477  16.760  1.00  5.31     0.002 A 
HETATM   20  C13 S58 A 701      20.443  20.507  16.616  1.00  2.00     0.007 A 
HETATM   21  C14 S58 A 701      19.846  21.495  15.837  1.00  2.00     0.035 A 
HETATM   22  C15 S58 A 701      20.636  22.437  15.169  1.00  2.25     0.007 A 
HETATM   23 BR1  S58 A 701      18.007  21.654  15.828  1.00  4.05    -0.049 Br
HETATM   24  C16 S58 A 701      22.044  22.417  15.306  1.00  2.30     0.002 A 
ENDBRANCH   2  18
BRANCH   3  25
HETATM   25  C4  S58 A 701      27.242  21.049  18.402  1.00  8.58     0.437 C 
HETATM   26  F1  S58 A 701      26.697  20.620  19.568  1.00  2.57    -0.164 F 
HETATM   27  F2  S58 A 701      28.000  22.142  18.580  1.00  8.03    -0.164 F 
HETATM   28  F3  S58 A 701      27.999  20.070  17.894  1.00 10.66    -0.164 F 
ENDBRANCH   3  25
TORSDOF 5
