REMARK  6 active torsions:
REMARK  status: ('A' for Active; 'I' for Inactive)
REMARK    1  A    between atoms: C1_1  and  S_7 
REMARK    2  A    between atoms: S_7  and  C7_8 
REMARK    3  A    between atoms: C12_9  and  CF_10 
REMARK    4  A    between atoms: N8_15  and  CA_20 
REMARK    5  A    between atoms: CA_20  and  OB_21 
REMARK    6  A    between atoms: OB_21  and  CC_22 
ROOT
HETATM    1  C7  612 A 999      -1.043 -34.388  25.570  1.00 18.06     0.090 A 
HETATM    2  C12 612 A 999      -2.039 -34.291  24.608  1.00 14.61     0.047 A 
HETATM    3  C11 612 A 999      -3.364 -33.832  24.989  1.00 18.65     0.258 A 
HETATM    4  O11 612 A 999      -4.280 -33.668  24.195  1.00 19.51    -0.267 OA
HETATM    5  N8  612 A 999      -1.309 -34.070  26.915  1.00 19.76    -0.271 N 
HETATM    6  C9  612 A 999      -2.582 -33.638  27.339  1.00 23.47     0.332 A 
HETATM    7  O9  612 A 999      -2.837 -33.376  28.513  1.00 22.87    -0.246 OA
HETATM    8  N10 612 A 999      -3.541 -33.533  26.343  1.00 16.93    -0.275 N 
ATOM      9  H10 612 A 999      -4.465 -33.207  26.625  1.00  0.00     0.173 HD
ENDROOT
BRANCH   1  10
HETATM   10  S   612 A 999       0.695 -34.865  25.110  1.00 32.26    -0.106 SA
BRANCH  10  11
HETATM   11  C1  612 A 999       0.732 -36.664  24.787  1.00 32.95     0.054 C 
HETATM   12  C2  612 A 999      -0.510 -37.221  25.467  1.00 34.65     0.015 C 
HETATM   13  C3  612 A 999      -0.688 -38.683  25.151  1.00 27.76     0.001 C 
HETATM   14  C4  612 A 999      -0.757 -38.905  23.643  1.00 29.08     0.000 C 
HETATM   15  C5  612 A 999       0.496 -38.360  22.970  1.00 28.74     0.001 C 
HETATM   16  C6  612 A 999       0.655 -36.888  23.283  1.00 30.82     0.015 C 
ENDBRANCH  10  11
ENDBRANCH   1  10
BRANCH   2  17
HETATM   17  CF  612 A 999      -1.919 -34.835  23.172  1.00 10.07     0.019 C 
HETATM   18  CH  612 A 999      -2.259 -33.835  22.091  1.00 14.61     0.015 C 
HETATM   19  CI  612 A 999      -2.543 -36.174  22.980  1.00 17.14     0.015 C 
ENDBRANCH   2  17
BRANCH   5  20
HETATM   20  CA  612 A 999      -0.285 -34.216  27.980  1.00 21.69     0.304 C 
BRANCH  20  21
HETATM   21  OB  612 A 999       0.493 -33.034  28.130  1.00 29.12    -0.372 OA
BRANCH  21  22
HETATM   22  CC  612 A 999       1.886 -33.333  28.267  1.00 25.28     0.165 C 
HETATM   23  CD  612 A 999       2.131 -34.816  28.141  1.00 18.82     0.033 C 
ENDBRANCH  21  22
ENDBRANCH  20  21
ENDBRANCH   5  20
TORSDOF 6
