REMARK  6 active torsions:
REMARK  status: ('A' for Active; 'I' for Inactive)
REMARK    1  A    between atoms: C1_1  and  S_7 
REMARK    2  A    between atoms: S_7  and  C7_8 
REMARK    3  A    between atoms: C12_9  and  CF_10 
REMARK    4  A    between atoms: N8_15  and  CA_20 
REMARK    5  A    between atoms: CA_20  and  OB_21 
REMARK    6  A    between atoms: OB_21  and  CC_22 
ROOT
HETATM    1  C7  612 A 999       0.525 -34.054  26.848  1.00 18.06     0.090 A 
HETATM    2  C12 612 A 999       1.507 -33.980  27.826  1.00 14.61     0.047 A 
HETATM    3  C11 612 A 999       1.186 -33.414  29.125  1.00 18.65     0.258 A 
HETATM    4  O11 612 A 999       1.977 -33.361  30.058  1.00 19.51    -0.267 OA
HETATM    5  N8  612 A 999      -0.772 -33.564  27.093  1.00 19.76    -0.271 N 
HETATM    6  C9  612 A 999      -1.129 -32.989  28.329  1.00 23.47     0.332 A 
HETATM    7  O9  612 A 999      -2.251 -32.538  28.552  1.00 22.87    -0.246 OA
HETATM    8  N10 612 A 999      -0.125 -32.956  29.285  1.00 16.93    -0.275 N 
ATOM      9  H10 612 A 999      -0.366 -32.558  30.193  1.00  0.00     0.173 HD
ENDROOT
BRANCH   1  10
HETATM   10  S   612 A 999       0.858 -34.869  25.210  1.00 32.26    -0.106 SA
BRANCH  10  11
HETATM   11  C1  612 A 999      -0.109 -36.418  25.130  1.00 32.95     0.054 C 
HETATM   12  C2  612 A 999      -0.007 -36.882  23.684  1.00 34.65     0.015 C 
HETATM   13  C3  612 A 999      -0.638 -38.238  23.507  1.00 27.76     0.001 C 
HETATM   14  C4  612 A 999       0.002 -39.258  24.444  1.00 29.08     0.000 C 
HETATM   15  C5  612 A 999      -0.118 -38.796  25.890  1.00 28.74     0.001 C 
HETATM   16  C6  612 A 999       0.532 -37.440  26.058  1.00 30.82     0.015 C 
ENDBRANCH  10  11
ENDBRANCH   1  10
BRANCH   2  17
HETATM   17  CF  612 A 999       3.001 -34.266  27.585  1.00 10.07     0.019 C 
HETATM   18  CH  612 A 999       3.726 -34.861  28.769  1.00 14.61     0.015 C 
HETATM   19  CI  612 A 999       3.730 -33.148  26.923  1.00 17.14     0.015 C 
ENDBRANCH   2  17
BRANCH   5  20
HETATM   20  CA  612 A 999      -1.832 -33.575  26.052  1.00 21.69     0.304 C 
BRANCH  20  21
HETATM   21  OB  612 A 999      -2.983 -34.295  26.478  1.00 29.12    -0.372 OA
BRANCH  21  22
HETATM   22  CC  612 A 999      -4.190 -33.680  26.019  1.00 25.28     0.165 C 
HETATM   23  CD  612 A 999      -4.126 -33.414  24.535  1.00 18.82     0.033 C 
ENDBRANCH  21  22
ENDBRANCH  20  21
ENDBRANCH   5  20
TORSDOF 6
