REMARK  6 active torsions:
REMARK  status: ('A' for Active; 'I' for Inactive)
REMARK    1  A    between atoms: C1_1  and  S_7 
REMARK    2  A    between atoms: S_7  and  C7_8 
REMARK    3  A    between atoms: C12_9  and  CF_10 
REMARK    4  A    between atoms: N8_15  and  CA_20 
REMARK    5  A    between atoms: CA_20  and  OB_21 
REMARK    6  A    between atoms: OB_21  and  CC_22 
ROOT
HETATM    1  C7  612 A 999      -1.320 -35.161  24.520  1.00 18.06     0.090 A 
HETATM    2  C12 612 A 999      -2.399 -34.407  24.080  1.00 14.61     0.047 A 
HETATM    3  C11 612 A 999      -2.631 -34.249  22.654  1.00 18.65     0.258 A 
HETATM    4  O11 612 A 999      -3.588 -33.647  22.184  1.00 19.51    -0.267 OA
HETATM    5  N8  612 A 999      -0.434 -35.754  23.600  1.00 19.76    -0.271 N 
HETATM    6  C9  612 A 999      -0.604 -35.615  22.209  1.00 23.47     0.332 A 
HETATM    7  O9  612 A 999       0.172 -36.108  21.392  1.00 22.87    -0.246 OA
HETATM    8  N10 612 A 999      -1.707 -34.873  21.812  1.00 16.93    -0.275 N 
ATOM      9  H10 612 A 999      -1.859 -34.774  20.808  1.00  0.00     0.173 HD
ENDROOT
BRANCH   1  10
HETATM   10  S   612 A 999      -1.046 -35.482  26.331  1.00 32.26    -0.106 SA
BRANCH  10  11
HETATM   11  C1  612 A 999       0.388 -34.492  26.882  1.00 32.95     0.054 C 
HETATM   12  C2  612 A 999      -0.077 -33.773  28.140  1.00 34.65     0.015 C 
HETATM   13  C3  612 A 999       1.061 -33.033  28.790  1.00 27.76     0.001 C 
HETATM   14  C4  612 A 999       2.211 -33.983  29.111  1.00 29.08     0.000 C 
HETATM   15  C5  612 A 999       2.683 -34.687  27.845  1.00 28.74     0.001 C 
HETATM   16  C6  612 A 999       1.534 -35.439  27.210  1.00 30.82     0.015 C 
ENDBRANCH  10  11
ENDBRANCH   1  10
BRANCH   2  17
HETATM   17  CF  612 A 999      -3.280 -33.532  24.990  1.00 10.07     0.019 C 
HETATM   18  CH  612 A 999      -2.578 -32.991  26.214  1.00 14.61     0.015 C 
HETATM   19  CI  612 A 999      -4.625 -34.111  25.267  1.00 17.14     0.015 C 
ENDBRANCH   2  17
BRANCH   5  20
HETATM   20  CA  612 A 999       0.763 -36.519  24.035  1.00 21.69     0.304 C 
BRANCH  20  21
HETATM   21  OB  612 A 999       0.653 -37.900  23.710  1.00 29.12    -0.372 OA
BRANCH  21  22
HETATM   22  CC  612 A 999      -0.302 -38.564  24.545  1.00 25.28     0.165 C 
HETATM   23  CD  612 A 999       0.295 -38.882  25.893  1.00 18.82     0.033 C 
ENDBRANCH  21  22
ENDBRANCH  20  21
ENDBRANCH   5  20
TORSDOF 6
