REMARK  6 active torsions:
REMARK  status: ('A' for Active; 'I' for Inactive)
REMARK    1  A    between atoms: C1_1  and  S_7 
REMARK    2  A    between atoms: S_7  and  C7_8 
REMARK    3  A    between atoms: C12_9  and  CF_10 
REMARK    4  A    between atoms: N8_15  and  CA_20 
REMARK    5  A    between atoms: CA_20  and  OB_21 
REMARK    6  A    between atoms: OB_21  and  CC_22 
ROOT
HETATM    1  C7  612 A 999       0.724 -34.066  26.861  1.00 18.06     0.090 A 
HETATM    2  C12 612 A 999       1.666 -33.980  27.877  1.00 14.61     0.047 A 
HETATM    3  C11 612 A 999       1.285 -33.425  29.165  1.00 18.65     0.258 A 
HETATM    4  O11 612 A 999       2.039 -33.364  30.127  1.00 19.51    -0.267 OA
HETATM    5  N8  612 A 999      -0.590 -33.601  27.058  1.00 19.76    -0.271 N 
HETATM    6  C9  612 A 999      -1.004 -33.039  28.282  1.00 23.47     0.332 A 
HETATM    7  O9  612 A 999      -2.142 -32.609  28.464  1.00 22.87    -0.246 OA
HETATM    8  N10 612 A 999      -0.039 -32.992  29.276  1.00 16.93    -0.275 N 
ATOM      9  H10 612 A 999      -0.322 -32.603  30.176  1.00  0.00     0.173 HD
ENDROOT
BRANCH   1  10
HETATM   10  S   612 A 999       1.135 -34.867  25.234  1.00 32.26    -0.106 SA
BRANCH  10  11
HETATM   11  C1  612 A 999       0.045 -36.318  25.014  1.00 32.95     0.054 C 
HETATM   12  C2  612 A 999       0.424 -36.905  23.662  1.00 34.65     0.015 C 
HETATM   13  C3  612 A 999      -0.296 -38.205  23.418  1.00 27.76     0.001 C 
HETATM   14  C4  612 A 999      -0.005 -39.202  24.536  1.00 29.08     0.000 C 
HETATM   15  C5  612 A 999      -0.401 -38.615  25.884  1.00 28.74     0.001 C 
HETATM   16  C6  612 A 999       0.340 -37.318  26.124  1.00 30.82     0.015 C 
ENDBRANCH  10  11
ENDBRANCH   1  10
BRANCH   2  17
HETATM   17  CF  612 A 999       3.173 -34.238  27.692  1.00 10.07     0.019 C 
HETATM   18  CH  612 A 999       3.857 -34.856  28.889  1.00 14.61     0.015 C 
HETATM   19  CI  612 A 999       3.913 -33.090  27.093  1.00 17.14     0.015 C 
ENDBRANCH   2  17
BRANCH   5  20
HETATM   20  CA  612 A 999      -1.608 -33.625  25.977  1.00 21.69     0.304 C 
BRANCH  20  21
HETATM   21  OB  612 A 999      -2.663 -34.536  26.266  1.00 29.12    -0.372 OA
BRANCH  21  22
HETATM   22  CC  612 A 999      -3.944 -33.970  25.973  1.00 25.28     0.165 C 
HETATM   23  CD  612 A 999      -3.936 -33.294  24.624  1.00 18.82     0.033 C 
ENDBRANCH  21  22
ENDBRANCH  20  21
ENDBRANCH   5  20
TORSDOF 6
