REMARK  6 active torsions:
REMARK  status: ('A' for Active; 'I' for Inactive)
REMARK    1  A    between atoms: C1_1  and  S_7 
REMARK    2  A    between atoms: S_7  and  C7_8 
REMARK    3  A    between atoms: C12_9  and  CF_10 
REMARK    4  A    between atoms: N8_15  and  CA_20 
REMARK    5  A    between atoms: CA_20  and  OB_21 
REMARK    6  A    between atoms: OB_21  and  CC_22 
ROOT
HETATM    1  C7  612 A 999      -1.825 -35.052  25.315  1.00 18.06     0.090 A 
HETATM    2  C12 612 A 999      -1.612 -35.378  23.982  1.00 14.61     0.047 A 
HETATM    3  C11 612 A 999      -2.495 -34.841  22.961  1.00 18.65     0.258 A 
HETATM    4  O11 612 A 999      -2.344 -35.035  21.762  1.00 19.51    -0.267 OA
HETATM    5  N8  612 A 999      -2.901 -34.226  25.689  1.00 19.76    -0.271 N 
HETATM    6  C9  612 A 999      -3.796 -33.694  24.740  1.00 23.47     0.332 A 
HETATM    7  O9  612 A 999      -4.753 -32.989  25.052  1.00 22.87    -0.246 OA
HETATM    8  N10 612 A 999      -3.534 -34.027  23.419  1.00 16.93    -0.275 N 
ATOM      9  H10 612 A 999      -4.160 -33.639  22.713  1.00  0.00     0.173 HD
ENDROOT
BRANCH   1  10
HETATM   10  S   612 A 999      -0.657 -35.627  26.643  1.00 32.26    -0.106 SA
BRANCH  10  11
HETATM   11  C1  612 A 999       0.757 -34.470  26.707  1.00 32.95     0.054 C 
HETATM   12  C2  612 A 999       1.268 -34.538  28.139  1.00 34.65     0.015 C 
HETATM   13  C3  612 A 999       2.537 -33.743  28.296  1.00 27.76     0.001 C 
HETATM   14  C4  612 A 999       3.605 -34.230  27.322  1.00 29.08     0.000 C 
HETATM   15  C5  612 A 999       3.093 -34.144  25.890  1.00 28.74     0.001 C 
HETATM   16  C6  612 A 999       1.827 -34.959  25.741  1.00 30.82     0.015 C 
ENDBRANCH  10  11
ENDBRANCH   1  10
BRANCH   2  17
HETATM   17  CF  612 A 999      -0.619 -36.451  23.495  1.00 10.07     0.019 C 
HETATM   18  CH  612 A 999       0.310 -35.995  22.395  1.00 14.61     0.015 C 
HETATM   19  CI  612 A 999      -1.242 -37.783  23.253  1.00 17.14     0.015 C 
ENDBRANCH   2  17
BRANCH   5  20
HETATM   20  CA  612 A 999      -3.193 -33.902  27.109  1.00 21.69     0.304 C 
BRANCH  20  21
HETATM   21  OB  612 A 999      -2.557 -32.696  27.517  1.00 29.12    -0.372 OA
BRANCH  21  22
HETATM   22  CC  612 A 999      -1.405 -32.954  28.325  1.00 25.28     0.165 C 
HETATM   23  CD  612 A 999      -1.509 -32.239  29.650  1.00 18.82     0.033 C 
ENDBRANCH  21  22
ENDBRANCH  20  21
ENDBRANCH   5  20
TORSDOF 6
