DPC.pdb
  rDOCK(R)          3D
libRbt.so/2013.1/901 2013/11/27
 32 33  0  0  0  0  0  0  0  0999 V2000
   -1.7439   61.2418   -6.2727 C   0  0  0  0  0  0
   -1.4865   62.0260   -7.1786 O   0  0  0  0  0  0
   -2.0715   61.6700   -5.1743 O   0  0  0  0  0  0
   -1.7721   59.7977   -6.5667 C   0  0  0  0  0  0
   -1.4040   58.9005   -5.6461 C   0  0  0  0  0  0
   -1.4885   57.4260   -5.9337 C   0  0  0  0  0  0
   -1.6321   57.1412   -7.4264 C   0  0  0  0  0  0
   -2.1345   55.7846   -7.6107 N   0  0  0  0  0  0
   -1.4298   54.7762   -8.1465 C   0  0  0  0  0  0
   -0.2990   54.9467   -8.5692 O   0  0  0  0  0  0
   -2.1059   53.3929   -8.1552 C   0  0  0  0  0  0
   -2.6299   58.1281   -8.0280 C   0  0  0  0  0  0
   -2.2443   59.4503   -7.7639 O   0  0  0  0  0  0
   -2.6025   58.0222   -9.5361 C   0  0  0  0  0  0
   -1.7449   57.7184   -9.8726 O   0  0  0  0  0  0
   -3.7212   58.1676  -10.2331 N   0  0  0  0  0  0
   -3.6149   57.9556  -11.6937 C   0  0  0  0  0  0
   -4.1468   56.5860  -12.1274 C   0  0  0  0  0  0
   -2.9910   55.6068  -12.1802 C   0  0  0  0  0  0
   -2.4230   55.1069  -10.9869 C   0  0  0  0  0  0
   -2.4477   55.2080  -13.4100 C   0  0  0  0  0  0
   -1.3072   54.2524  -11.0267 C   0  0  0  0  0  0
   -1.3385   54.3574  -13.4511 C   0  0  0  0  0  0
   -0.7553   53.8849  -12.2675 C   0  0  0  0  0  0
   -4.9972   58.5858   -9.6567 C   0  0  0  0  0  0
   -5.2446   60.0963   -9.8099 C   0  0  0  0  0  0
   -5.7884   60.8005   -8.5528 C   0  0  0  0  0  0
   -0.3088   56.7799   -5.4232 N   0  0  0  0  0  0
   -1.5690   62.3479   -4.7668 H   0  0  0  0  0  0
   -3.0562   55.5951   -7.3213 H   0  0  0  0  0  0
    0.2000   56.3442   -6.1924 H   0  0  0  0  0  0
   -0.5781   56.0661   -4.7461 H   0  0  0  0  0  0
  1  2  2  0  0  0
  1  3  1  0  0  0
  1  4  1  0  0  0
  3 29  1  0  0  0
  4  5  2  0  0  0
  4 13  1  0  0  0
  5  6  1  0  0  0
  6  7  1  0  0  0
  6 28  1  0  0  0
  7  8  1  0  0  0
  7 12  1  0  0  0
  8  9  1  0  0  0
  8 30  1  0  0  0
  9 10  2  0  0  0
  9 11  1  0  0  0
 12 13  1  0  0  0
 12 14  1  0  0  0
 14 15  2  0  0  0
 14 16  1  0  0  0
 16 17  1  0  0  0
 16 25  1  0  0  0
 17 18  1  0  0  0
 18 19  1  0  0  0
 19 20  2  0  0  0
 19 21  1  0  0  0
 20 22  1  0  0  0
 21 23  2  0  0  0
 22 24  2  0  0  0
 23 24  1  0  0  0
 25 26  1  0  0  0
 26 27  1  0  0  0
 28 31  1  0  0  0
 28 32  1  0  0  0
M  END
>  <CHROM.0>
63.12788122,-156.59316455,-96.46635380,-156.44564502,-21.91067373,17.50560320
-177.03178877,68.80339603

>  <CHROM.1>
-48.13139025,147.31330019,-118.55508034,-112.23807491,-27.36357286,102.15611716
96.10307928,-93.82372256,73.96842492,-135.70646329,-2.35090281,57.48598336
-8.94916359,1.62721862,-0.93025881,0.79122976

>  <FORMUL>
      DPC    C20 H27 N3 O5

>  <HET>
 DPC  A 466      28

>  <HETNAM>
     DPC 5-ACETYLAMINO-4-AMINO-6-(PHENETHYL-PROPYL-CARBAMOYL)-5,
   2 DPC 6-DIHYDRO-4H-PYRAN-2-CARBOXYLIC ACID

>  <Name>
DPC.pdb

>  <RI>
2.76047e+07

>  <Rbt.Current_Directory>
/home/malgorzata/Desktop/rDOCK_IFD/Wyniki/11a_neuraminidase

>  <Rbt.Executable>
rbdock ($Id: //depot/dev/client3/rdock/2013.1/src/exe/rbdock.cxx#4 $)

>  <Rbt.Library>
libRbt.so (2013.1, Build901 2013/11/27)

>  <Rbt.Parameter_File>
/home/malgorzata/Desktop/rDock_2013.1_src/data/scripts/soft_docking.prm

>  <Rbt.Receptor>
cavity.prm

>  <SCORE>
-51.4596

>  <SCORE.INTER>
-28.0991

>  <SCORE.INTER.CONST>
1

>  <SCORE.INTER.POLAR>
-4.30465

>  <SCORE.INTER.REPUL>
0

>  <SCORE.INTER.ROT>
9

>  <SCORE.INTER.VDW>
-27.8633

>  <SCORE.INTER.norm>
-1.00354

>  <SCORE.INTRA>
5.17354

>  <SCORE.INTRA.DIHEDRAL>
24.4677

>  <SCORE.INTRA.DIHEDRAL.0>
7.68839

>  <SCORE.INTRA.POLAR>
0

>  <SCORE.INTRA.POLAR.0>
0

>  <SCORE.INTRA.REPUL>
0

>  <SCORE.INTRA.REPUL.0>
0

>  <SCORE.INTRA.VDW>
0.280005

>  <SCORE.INTRA.VDW.0>
-2.73227

>  <SCORE.INTRA.norm>
0.184769

>  <SCORE.RESTR>
0

>  <SCORE.RESTR.CAVITY>
0

>  <SCORE.RESTR.norm>
0

>  <SCORE.SYSTEM>
-28.534

>  <SCORE.SYSTEM.CONST>
0

>  <SCORE.SYSTEM.DIHEDRAL>
2.36365

>  <SCORE.SYSTEM.POLAR>
-6.83311

>  <SCORE.SYSTEM.VDW>
-6.48324

>  <SCORE.SYSTEM.norm>
-1.01907

>  <SCORE.heavy>
28

>  <SCORE.norm>
-1.83784

$$$$
DPC.pdb
  rDOCK(R)          3D
libRbt.so/2013.1/901 2013/11/27
 32 33  0  0  0  0  0  0  0  0999 V2000
   -0.2798   58.6940   -6.5045 C   0  0  0  0  0  0
   -0.1706   58.9964   -5.3219 O   0  0  0  0  0  0
    0.6560   58.1581   -7.0827 O   0  0  0  0  0  0
   -1.5838   58.8721   -7.1682 C   0  0  0  0  0  0
   -2.2930   59.9936   -7.0027 C   0  0  0  0  0  0
   -3.5966   60.1920   -7.7273 C   0  0  0  0  0  0
   -4.1465   58.8821   -8.2854 C   0  0  0  0  0  0
   -5.1376   59.1764   -9.3139 N   0  0  0  0  0  0
   -6.4623   59.0248   -9.1627 C   0  0  0  0  0  0
   -6.9359   58.5734   -8.1339 O   0  0  0  0  0  0
   -7.3463   59.4924  -10.3334 C   0  0  0  0  0  0
   -3.0019   58.0871   -8.9094 C   0  0  0  0  0  0
   -1.9688   57.8890   -7.9818 O   0  0  0  0  0  0
   -3.4773   56.6920   -9.2468 C   0  0  0  0  0  0
   -4.1913   56.3905   -8.6634 O   0  0  0  0  0  0
   -3.0441   56.0898  -10.3460 N   0  0  0  0  0  0
   -3.6339   54.7655  -10.6429 C   0  0  0  0  0  0
   -5.0979   54.8615  -11.0835 C   0  0  0  0  0  0
   -5.8523   53.6651  -10.5384 C   0  0  0  0  0  0
   -5.2361   52.3946  -10.4876 C   0  0  0  0  0  0
   -7.1806   53.7934  -10.1077 C   0  0  0  0  0  0
   -5.9520   51.2673  -10.0478 C   0  0  0  0  0  0
   -7.8936   52.6731   -9.6691 C   0  0  0  0  0  0
   -7.2932   51.4070   -9.6467 C   0  0  0  0  0  0
   -1.9926   56.6204  -11.2108 C   0  0  0  0  0  0
   -2.3596   56.5362  -12.7022 C   0  0  0  0  0  0
   -3.6887   57.2122  -13.0876 C   0  0  0  0  0  0
   -4.5509   60.7785   -6.8244 N   0  0  0  0  0  0
    0.6452   58.0764   -8.0161 H   0  0  0  0  0  0
   -4.8116   59.5100  -10.1809 H   0  0  0  0  0  0
   -5.4929   60.6468   -7.1928 H   0  0  0  0  0  0
   -4.3596   61.7758   -6.7283 H   0  0  0  0  0  0
  1  2  2  0  0  0
  1  3  1  0  0  0
  1  4  1  0  0  0
  3 29  1  0  0  0
  4  5  2  0  0  0
  4 13  1  0  0  0
  5  6  1  0  0  0
  6  7  1  0  0  0
  6 28  1  0  0  0
  7  8  1  0  0  0
  7 12  1  0  0  0
  8  9  1  0  0  0
  8 30  1  0  0  0
  9 10  2  0  0  0
  9 11  1  0  0  0
 12 13  1  0  0  0
 12 14  1  0  0  0
 14 15  2  0  0  0
 14 16  1  0  0  0
 16 17  1  0  0  0
 16 25  1  0  0  0
 17 18  1  0  0  0
 18 19  1  0  0  0
 19 20  2  0  0  0
 19 21  1  0  0  0
 20 22  1  0  0  0
 21 23  2  0  0  0
 22 24  2  0  0  0
 23 24  1  0  0  0
 25 26  1  0  0  0
 26 27  1  0  0  0
 28 31  1  0  0  0
 28 32  1  0  0  0
M  END
>  <CHROM.0>
174.64472719,161.69704500,79.72168021,71.57424875,-171.80033077,129.62292465
82.52585912,71.85147622

>  <CHROM.1>
-168.08744255,45.28338967,-162.15201770,-106.75902597,-28.45436029,70.87455097
-134.49784677,-144.18629912,-37.63799816,55.33977847,-4.01160276,56.91648286
-9.16290960,-1.00591627,0.18009367,-2.75272925

>  <FORMUL>
      DPC    C20 H27 N3 O5

>  <HET>
 DPC  A 466      28

>  <HETNAM>
     DPC 5-ACETYLAMINO-4-AMINO-6-(PHENETHYL-PROPYL-CARBAMOYL)-5,
   2 DPC 6-DIHYDRO-4H-PYRAN-2-CARBOXYLIC ACID

>  <Name>
DPC.pdb

>  <RI>
2.76047e+07

>  <Rbt.Current_Directory>
/home/malgorzata/Desktop/rDOCK_IFD/Wyniki/11a_neuraminidase

>  <Rbt.Executable>
rbdock ($Id: //depot/dev/client3/rdock/2013.1/src/exe/rbdock.cxx#4 $)

>  <Rbt.Library>
libRbt.so (2013.1, Build901 2013/11/27)

>  <Rbt.Parameter_File>
/home/malgorzata/Desktop/rDock_2013.1_src/data/scripts/soft_docking.prm

>  <Rbt.Receptor>
cavity.prm

>  <SCORE>
-43.2245

>  <SCORE.INTER>
-26.4543

>  <SCORE.INTER.CONST>
1

>  <SCORE.INTER.POLAR>
-3.90167

>  <SCORE.INTER.REPUL>
0.223044

>  <SCORE.INTER.ROT>
9

>  <SCORE.INTER.VDW>
-28.7038

>  <SCORE.INTER.norm>
-0.944795

>  <SCORE.INTRA>
4.44079

>  <SCORE.INTRA.DIHEDRAL>
8.90377

>  <SCORE.INTRA.DIHEDRAL.0>
7.68839

>  <SCORE.INTRA.POLAR>
0

>  <SCORE.INTRA.POLAR.0>
0

>  <SCORE.INTRA.REPUL>
0

>  <SCORE.INTRA.REPUL.0>
0

>  <SCORE.INTRA.VDW>
2.66004

>  <SCORE.INTRA.VDW.0>
-2.73227

>  <SCORE.INTRA.norm>
0.1586

>  <SCORE.RESTR>
0.348331

>  <SCORE.RESTR.CAVITY>
0.0696663

>  <SCORE.RESTR.norm>
0.0124404

>  <SCORE.SYSTEM>
-21.5594

>  <SCORE.SYSTEM.CONST>
0

>  <SCORE.SYSTEM.DIHEDRAL>
7.2645

>  <SCORE.SYSTEM.POLAR>
-6.30728

>  <SCORE.SYSTEM.REPUL>
0.604203

>  <SCORE.SYSTEM.VDW>
-6.76791

>  <SCORE.SYSTEM.norm>
-0.769978

>  <SCORE.heavy>
28

>  <SCORE.norm>
-1.54373

$$$$
DPC.pdb
  rDOCK(R)          3D
libRbt.so/2013.1/901 2013/11/27
 32 33  0  0  0  0  0  0  0  0999 V2000
    0.7262   53.3725   -9.6366 C   0  0  0  0  0  0
    0.1115   52.9120  -10.5916 O   0  0  0  0  0  0
    1.7257   52.7990   -9.2249 O   0  0  0  0  0  0
    0.3149   54.6763   -9.0859 C   0  0  0  0  0  0
    1.2188   55.5368   -8.6056 C   0  0  0  0  0  0
    0.7977   56.8886   -8.0966 C   0  0  0  0  0  0
   -0.7046   56.9597   -7.8358 C   0  0  0  0  0  0
   -1.1155   58.3574   -7.7706 N   0  0  0  0  0  0
   -0.9202   59.1617   -6.7144 C   0  0  0  0  0  0
   -0.4079   58.7482   -5.6883 O   0  0  0  0  0  0
   -1.3333   60.6350   -6.8858 C   0  0  0  0  0  0
   -1.4424   56.2765   -8.9850 C   0  0  0  0  0  0
   -0.9849   54.9624   -9.1599 O   0  0  0  0  0  0
   -2.9039   56.1220   -8.6295 C   0  0  0  0  0  0
   -3.1469   56.6144   -7.8298 O   0  0  0  0  0  0
   -3.7320   55.5169   -9.4701 N   0  0  0  0  0  0
   -5.1595   55.4943   -9.0806 C   0  0  0  0  0  0
   -5.6811   56.8796   -8.6861 C   0  0  0  0  0  0
   -5.9521   57.6772   -9.9462 C   0  0  0  0  0  0
   -7.1484   58.4171  -10.0800 C   0  0  0  0  0  0
   -5.0374   57.6672  -11.0090 C   0  0  0  0  0  0
   -7.4379   59.1033  -11.2726 C   0  0  0  0  0  0
   -5.3235   58.3499  -12.1954 C   0  0  0  0  0  0
   -6.5234   59.0594  -12.3408 C   0  0  0  0  0  0
   -3.3063   54.8290  -10.6870 C   0  0  0  0  0  0
   -3.1214   55.7917  -11.8725 C   0  0  0  0  0  0
   -2.9378   55.1134  -13.2429 C   0  0  0  0  0  0
    1.5190   57.1800   -6.8864 N   0  0  0  0  0  0
    2.1329   53.0804   -8.4293 H   0  0  0  0  0  0
   -1.5684   58.7380   -8.5576 H   0  0  0  0  0  0
    2.4227   57.5914   -7.1199 H   0  0  0  0  0  0
    1.6634   56.3179   -6.3608 H   0  0  0  0  0  0
  1  2  2  0  0  0
  1  3  1  0  0  0
  1  4  1  0  0  0
  3 29  1  0  0  0
  4  5  2  0  0  0
  4 13  1  0  0  0
  5  6  1  0  0  0
  6  7  1  0  0  0
  6 28  1  0  0  0
  7  8  1  0  0  0
  7 12  1  0  0  0
  8  9  1  0  0  0
  8 30  1  0  0  0
  9 10  2  0  0  0
  9 11  1  0  0  0
 12 13  1  0  0  0
 12 14  1  0  0  0
 14 15  2  0  0  0
 14 16  1  0  0  0
 16 17  1  0  0  0
 16 25  1  0  0  0
 17 18  1  0  0  0
 18 19  1  0  0  0
 19 20  2  0  0  0
 19 21  1  0  0  0
 20 22  1  0  0  0
 21 23  2  0  0  0
 22 24  2  0  0  0
 23 24  1  0  0  0
 25 26  1  0  0  0
 26 27  1  0  0  0
 28 31  1  0  0  0
 28 32  1  0  0  0
M  END
>  <CHROM.0>
47.99785262,138.51571479,-48.10349191,132.19407425,153.04804783,-4.83055031
79.32823733,-78.49389984

>  <CHROM.1>
-171.90121173,-144.61159252,85.37980366,-77.48473326,10.37403228,50.01379925
-83.50889289,78.26618627,134.69007577,-168.83376179,-2.33130614,56.56775058
-9.30189557,0.03487723,0.48703447,-2.46597921

>  <FORMUL>
      DPC    C20 H27 N3 O5

>  <HET>
 DPC  A 466      28

>  <HETNAM>
     DPC 5-ACETYLAMINO-4-AMINO-6-(PHENETHYL-PROPYL-CARBAMOYL)-5,
   2 DPC 6-DIHYDRO-4H-PYRAN-2-CARBOXYLIC ACID

>  <Name>
DPC.pdb

>  <RI>
2.76047e+07

>  <Rbt.Current_Directory>
/home/malgorzata/Desktop/rDOCK_IFD/Wyniki/11a_neuraminidase

>  <Rbt.Executable>
rbdock ($Id: //depot/dev/client3/rdock/2013.1/src/exe/rbdock.cxx#4 $)

>  <Rbt.Library>
libRbt.so (2013.1, Build901 2013/11/27)

>  <Rbt.Parameter_File>
/home/malgorzata/Desktop/rDock_2013.1_src/data/scripts/soft_docking.prm

>  <Rbt.Receptor>
cavity.prm

>  <SCORE>
-54.4609

>  <SCORE.INTER>
-36.2164

>  <SCORE.INTER.CONST>
1

>  <SCORE.INTER.POLAR>
-4.68733

>  <SCORE.INTER.REPUL>
0.238234

>  <SCORE.INTER.ROT>
9

>  <SCORE.INTER.VDW>
-35.8706

>  <SCORE.INTER.norm>
-1.29344

>  <SCORE.INTRA>
6.57898

>  <SCORE.INTRA.DIHEDRAL>
3.97142

>  <SCORE.INTRA.DIHEDRAL.0>
7.68839

>  <SCORE.INTRA.POLAR>
0

>  <SCORE.INTRA.POLAR.0>
0

>  <SCORE.INTRA.REPUL>
0

>  <SCORE.INTRA.REPUL.0>
0

>  <SCORE.INTRA.VDW>
5.78469

>  <SCORE.INTRA.VDW.0>
-2.73227

>  <SCORE.INTRA.norm>
0.234963

>  <SCORE.RESTR>
0

>  <SCORE.RESTR.CAVITY>
0

>  <SCORE.RESTR.norm>
0

>  <SCORE.SYSTEM>
-24.8235

>  <SCORE.SYSTEM.CONST>
0

>  <SCORE.SYSTEM.DIHEDRAL>
7.72039

>  <SCORE.SYSTEM.POLAR>
-6.47459

>  <SCORE.SYSTEM.VDW>
-6.6701

>  <SCORE.SYSTEM.norm>
-0.886554

>  <SCORE.heavy>
28

>  <SCORE.norm>
-1.94503

$$$$
DPC.pdb
  rDOCK(R)          3D
libRbt.so/2013.1/901 2013/11/27
 32 33  0  0  0  0  0  0  0  0999 V2000
   -2.1656   57.9447   -5.9492 C   0  0  0  0  0  0
   -3.0967   58.6456   -6.3283 O   0  0  0  0  0  0
   -1.9447   57.8249   -4.7517 O   0  0  0  0  0  0
   -1.4106   57.1630   -6.9450 C   0  0  0  0  0  0
   -0.2028   56.6659   -6.6580 C   0  0  0  0  0  0
    0.5381   55.8218   -7.6592 C   0  0  0  0  0  0
   -0.0411   55.9599   -9.0647 C   0  0  0  0  0  0
    0.4048   54.8366   -9.8808 N   0  0  0  0  0  0
    0.8281   53.6602   -9.3936 C   0  0  0  0  0  0
    0.9118   53.4636   -8.1934 O   0  0  0  0  0  0
    1.1552   52.5657  -10.4260 C   0  0  0  0  0  0
   -1.5655   55.9398   -8.9793 C   0  0  0  0  0  0
   -2.0289   56.9317   -8.1030 O   0  0  0  0  0  0
   -2.1542   56.3172  -10.3200 C   0  0  0  0  0  0
   -2.1470   57.2750  -10.4736 O   0  0  0  0  0  0
   -2.4531   55.3747  -11.2037 N   0  0  0  0  0  0
   -2.9369   55.8426  -12.5216 C   0  0  0  0  0  0
   -4.4532   55.6900  -12.6771 C   0  0  0  0  0  0
   -5.1403   56.7357  -11.8216 C   0  0  0  0  0  0
   -4.6881   58.0743  -11.8288 C   0  0  0  0  0  0
   -6.2116   56.3853  -10.9874 C   0  0  0  0  0  0
   -5.2760   59.0346  -10.9868 C   0  0  0  0  0  0
   -6.7980   57.3396  -10.1501 C   0  0  0  0  0  0
   -6.3306   58.6607  -10.1340 C   0  0  0  0  0  0
   -2.4000   53.9417  -10.9229 C   0  0  0  0  0  0
   -3.2261   53.5541   -9.6845 C   0  0  0  0  0  0
   -4.6579   53.0692   -9.9793 C   0  0  0  0  0  0
    1.9248   56.2047   -7.6612 N   0  0  0  0  0  0
   -2.6191   58.0153   -4.1296 H   0  0  0  0  0  0
    0.3944   54.9495  -10.8587 H   0  0  0  0  0  0
    2.3039   56.1142   -6.7186 H   0  0  0  0  0  0
    2.0096   57.1731   -7.9703 H   0  0  0  0  0  0
  1  2  2  0  0  0
  1  3  1  0  0  0
  1  4  1  0  0  0
  3 29  1  0  0  0
  4  5  2  0  0  0
  4 13  1  0  0  0
  5  6  1  0  0  0
  6  7  1  0  0  0
  6 28  1  0  0  0
  7  8  1  0  0  0
  7 12  1  0  0  0
  8  9  1  0  0  0
  8 30  1  0  0  0
  9 10  2  0  0  0
  9 11  1  0  0  0
 12 13  1  0  0  0
 12 14  1  0  0  0
 14 15  2  0  0  0
 14 16  1  0  0  0
 16 17  1  0  0  0
 16 25  1  0  0  0
 17 18  1  0  0  0
 18 19  1  0  0  0
 19 20  2  0  0  0
 19 21  1  0  0  0
 20 22  1  0  0  0
 21 23  2  0  0  0
 22 24  2  0  0  0
 23 24  1  0  0  0
 25 26  1  0  0  0
 26 27  1  0  0  0
 28 31  1  0  0  0
 28 32  1  0  0  0
M  END
>  <CHROM.0>
35.86552327,-138.16034849,105.08184138,48.83102165,-18.15630841,153.98495295
138.82860134,-42.66652377

>  <CHROM.1>
20.26832618,162.64583207,56.58278186,21.87091059,-79.51502154,-103.42222876
53.91076122,72.72125982,45.35640170,95.20593491,-2.27609113,56.08068473,-9.36325368
0.20799393,-0.52868358,0.90268954

>  <FORMUL>
      DPC    C20 H27 N3 O5

>  <HET>
 DPC  A 466      28

>  <HETNAM>
     DPC 5-ACETYLAMINO-4-AMINO-6-(PHENETHYL-PROPYL-CARBAMOYL)-5,
   2 DPC 6-DIHYDRO-4H-PYRAN-2-CARBOXYLIC ACID

>  <Name>
DPC.pdb

>  <RI>
2.76047e+07

>  <Rbt.Current_Directory>
/home/malgorzata/Desktop/rDOCK_IFD/Wyniki/11a_neuraminidase

>  <Rbt.Executable>
rbdock ($Id: //depot/dev/client3/rdock/2013.1/src/exe/rbdock.cxx#4 $)

>  <Rbt.Library>
libRbt.so (2013.1, Build901 2013/11/27)

>  <Rbt.Parameter_File>
/home/malgorzata/Desktop/rDock_2013.1_src/data/scripts/soft_docking.prm

>  <Rbt.Receptor>
cavity.prm

>  <SCORE>
-52.4222

>  <SCORE.INTER>
-34.3858

>  <SCORE.INTER.CONST>
1

>  <SCORE.INTER.POLAR>
-5.33502

>  <SCORE.INTER.REPUL>
0.310639

>  <SCORE.INTER.ROT>
9

>  <SCORE.INTER.VDW>
-32.1999

>  <SCORE.INTER.norm>
-1.22806

>  <SCORE.INTRA>
4.55772

>  <SCORE.INTRA.DIHEDRAL>
7.83769

>  <SCORE.INTRA.DIHEDRAL.0>
7.68839

>  <SCORE.INTRA.POLAR>
0

>  <SCORE.INTRA.POLAR.0>
0

>  <SCORE.INTRA.REPUL>
0

>  <SCORE.INTRA.REPUL.0>
0

>  <SCORE.INTRA.VDW>
2.99018

>  <SCORE.INTRA.VDW.0>
-2.73227

>  <SCORE.INTRA.norm>
0.162776

>  <SCORE.RESTR>
1.52082

>  <SCORE.RESTR.CAVITY>
0.304163

>  <SCORE.RESTR.norm>
0.0543149

>  <SCORE.SYSTEM>
-24.115

>  <SCORE.SYSTEM.CONST>
0

>  <SCORE.SYSTEM.DIHEDRAL>
7.15246

>  <SCORE.SYSTEM.POLAR>
-6.81104

>  <SCORE.SYSTEM.REPUL>
0.341979

>  <SCORE.SYSTEM.VDW>
-6.24359

>  <SCORE.SYSTEM.norm>
-0.86125

>  <SCORE.heavy>
28

>  <SCORE.norm>
-1.87222

$$$$
DPC.pdb
  rDOCK(R)          3D
libRbt.so/2013.1/901 2013/11/27
 32 33  0  0  0  0  0  0  0  0999 V2000
   -0.4957   57.3404   -6.4935 C   0  0  0  0  0  0
    0.2900   58.0647   -7.0934 O   0  0  0  0  0  0
   -0.8522   57.6381   -5.3614 O   0  0  0  0  0  0
   -1.0883   56.1913   -7.2013 C   0  0  0  0  0  0
   -0.9012   54.9418   -6.7630 C   0  0  0  0  0  0
   -1.5550   53.7782   -7.4576 C   0  0  0  0  0  0
   -2.0608   54.1523   -8.8483 C   0  0  0  0  0  0
   -3.0370   53.1617   -9.2872 N   0  0  0  0  0  0
   -2.7787   52.1653  -10.1480 C   0  0  0  0  0  0
   -1.6838   52.0464  -10.6710 O   0  0  0  0  0  0
   -3.9186   51.1615  -10.4006 C   0  0  0  0  0  0
   -2.7351   55.5207   -8.7816 C   0  0  0  0  0  0
   -1.8636   56.4803   -8.2464 O   0  0  0  0  0  0
   -3.0234   56.0135  -10.1817 C   0  0  0  0  0  0
   -2.2418   56.3962  -10.6103 O   0  0  0  0  0  0
   -4.1902   55.7473  -10.7529 N   0  0  0  0  0  0
   -4.3479   56.1887  -12.1565 C   0  0  0  0  0  0
   -4.8730   57.6238  -12.2640 C   0  0  0  0  0  0
   -5.4256   57.8392  -13.6589 C   0  0  0  0  0  0
   -6.1806   56.8269  -14.2925 C   0  0  0  0  0  0
   -5.1694   59.0304  -14.3531 C   0  0  0  0  0  0
   -6.6378   56.9924  -15.6118 C   0  0  0  0  0  0
   -5.6242   59.1968  -15.6650 C   0  0  0  0  0  0
   -6.3473   58.1814  -16.3054 C   0  0  0  0  0  0
   -5.3176   55.1252  -10.0623 C   0  0  0  0  0  0
   -5.5649   55.7355   -8.6722 C   0  0  0  0  0  0
   -7.0405   55.7870   -8.2338 C   0  0  0  0  0  0
   -0.6097   52.6981   -7.5546 N   0  0  0  0  0  0
   -1.7166   57.4229   -5.0707 H   0  0  0  0  0  0
   -3.9504   53.2288   -8.9262 H   0  0  0  0  0  0
   -0.6621   52.1238   -6.7132 H   0  0  0  0  0  0
    0.3322   53.0781   -7.6488 H   0  0  0  0  0  0
  1  2  2  0  0  0
  1  3  1  0  0  0
  1  4  1  0  0  0
  3 29  1  0  0  0
  4  5  2  0  0  0
  4 13  1  0  0  0
  5  6  1  0  0  0
  6  7  1  0  0  0
  6 28  1  0  0  0
  7  8  1  0  0  0
  7 12  1  0  0  0
  8  9  1  0  0  0
  8 30  1  0  0  0
  9 10  2  0  0  0
  9 11  1  0  0  0
 12 13  1  0  0  0
 12 14  1  0  0  0
 14 15  2  0  0  0
 14 16  1  0  0  0
 16 17  1  0  0  0
 16 25  1  0  0  0
 17 18  1  0  0  0
 18 19  1  0  0  0
 19 20  2  0  0  0
 19 21  1  0  0  0
 20 22  1  0  0  0
 21 23  2  0  0  0
 22 24  2  0  0  0
 23 24  1  0  0  0
 25 26  1  0  0  0
 26 27  1  0  0  0
 28 31  1  0  0  0
 28 32  1  0  0  0
M  END
>  <CHROM.0>
-68.55427452,-161.55343887,19.07384513,-106.04584350,80.29976373,78.25555762
-112.07416821,-105.15173359

>  <CHROM.1>
147.05909136,119.89709368,87.95582285,-101.23291026,-80.03356088,-88.24191314
44.91605306,-161.78189633,40.62902783,146.44492434,-3.34448779,55.74451628
-10.14778335,-0.36368681,-0.97926048,-0.08629643

>  <FORMUL>
      DPC    C20 H27 N3 O5

>  <HET>
 DPC  A 466      28

>  <HETNAM>
     DPC 5-ACETYLAMINO-4-AMINO-6-(PHENETHYL-PROPYL-CARBAMOYL)-5,
   2 DPC 6-DIHYDRO-4H-PYRAN-2-CARBOXYLIC ACID

>  <Name>
DPC.pdb

>  <RI>
2.76047e+07

>  <Rbt.Current_Directory>
/home/malgorzata/Desktop/rDOCK_IFD/Wyniki/11a_neuraminidase

>  <Rbt.Executable>
rbdock ($Id: //depot/dev/client3/rdock/2013.1/src/exe/rbdock.cxx#4 $)

>  <Rbt.Library>
libRbt.so (2013.1, Build901 2013/11/27)

>  <Rbt.Parameter_File>
/home/malgorzata/Desktop/rDock_2013.1_src/data/scripts/soft_docking.prm

>  <Rbt.Receptor>
cavity.prm

>  <SCORE>
-42.8353

>  <SCORE.INTER>
-26.9263

>  <SCORE.INTER.CONST>
1

>  <SCORE.INTER.POLAR>
-3.75994

>  <SCORE.INTER.REPUL>
0.0100939

>  <SCORE.INTER.ROT>
9

>  <SCORE.INTER.VDW>
-28.5929

>  <SCORE.INTER.norm>
-0.961652

>  <SCORE.INTRA>
6.09487

>  <SCORE.INTRA.DIHEDRAL>
19.1191

>  <SCORE.INTRA.DIHEDRAL.0>
7.68839

>  <SCORE.INTRA.POLAR>
0

>  <SCORE.INTRA.POLAR.0>
0

>  <SCORE.INTRA.REPUL>
0

>  <SCORE.INTRA.REPUL.0>
0

>  <SCORE.INTRA.VDW>
2.27106

>  <SCORE.INTRA.VDW.0>
-2.73227

>  <SCORE.INTRA.norm>
0.217674

>  <SCORE.RESTR>
1.89037

>  <SCORE.RESTR.CAVITY>
0.378074

>  <SCORE.RESTR.norm>
0.0675133

>  <SCORE.SYSTEM>
-23.8942

>  <SCORE.SYSTEM.CONST>
0

>  <SCORE.SYSTEM.DIHEDRAL>
6.68751

>  <SCORE.SYSTEM.POLAR>
-6.52279

>  <SCORE.SYSTEM.REPUL>
0.454554

>  <SCORE.SYSTEM.VDW>
-7.33327

>  <SCORE.SYSTEM.norm>
-0.853366

>  <SCORE.heavy>
28

>  <SCORE.norm>
-1.52983

$$$$
DPC.pdb
  rDOCK(R)          3D
libRbt.so/2013.1/901 2013/11/27
 32 33  0  0  0  0  0  0  0  0999 V2000
    1.0272   60.2120   -5.4412 C   0  0  0  0  0  0
    1.4370   59.8930   -4.3311 O   0  0  0  0  0  0
    1.3965   61.2642   -5.9449 O   0  0  0  0  0  0
    0.1946   59.2575   -6.1950 C   0  0  0  0  0  0
    0.6932   58.0887   -6.6117 C   0  0  0  0  0  0
   -0.1776   57.0952   -7.3318 C   0  0  0  0  0  0
   -1.4673   57.7303   -7.8447 C   0  0  0  0  0  0
   -2.4381   56.6810   -8.1333 N   0  0  0  0  0  0
   -2.5596   56.0582   -9.3156 C   0  0  0  0  0  0
   -1.8711   56.3718  -10.2717 O   0  0  0  0  0  0
   -3.5763   54.9038   -9.3839 C   0  0  0  0  0  0
   -2.0335   58.6496   -6.7650 C   0  0  0  0  0  0
   -1.0814   59.6007   -6.3705 O   0  0  0  0  0  0
   -3.1679   59.4683   -7.3387 C   0  0  0  0  0  0
   -3.9810   59.3970   -6.8144 O   0  0  0  0  0  0
   -2.9420   60.3063   -8.3414 N   0  0  0  0  0  0
   -4.0904   61.1325   -8.7755 C   0  0  0  0  0  0
   -4.6269   60.7149  -10.1483 C   0  0  0  0  0  0
   -5.5504   59.5260   -9.9715 C   0  0  0  0  0  0
   -5.6603   58.5496  -10.9868 C   0  0  0  0  0  0
   -6.3323   59.3942   -8.8149 C   0  0  0  0  0  0
   -6.5655   57.4812  -10.8596 C   0  0  0  0  0  0
   -7.2324   58.3316   -8.6866 C   0  0  0  0  0  0
   -7.3644   57.3790   -9.7061 C   0  0  0  0  0  0
   -1.6750   60.3973   -9.0635 C   0  0  0  0  0  0
   -0.8056   61.5707   -8.5799 C   0  0  0  0  0  0
    0.7093   61.3933   -8.7934 C   0  0  0  0  0  0
    0.5617   56.5325   -8.4302 N   0  0  0  0  0  0
    2.2498   61.3265   -6.3272 H   0  0  0  0  0  0
   -3.0475   56.4102   -7.4091 H   0  0  0  0  0  0
    0.0442   55.7448   -8.8202 H   0  0  0  0  0  0
    1.4712   56.2112   -8.0987 H   0  0  0  0  0  0
  1  2  2  0  0  0
  1  3  1  0  0  0
  1  4  1  0  0  0
  3 29  1  0  0  0
  4  5  2  0  0  0
  4 13  1  0  0  0
  5  6  1  0  0  0
  6  7  1  0  0  0
  6 28  1  0  0  0
  7  8  1  0  0  0
  7 12  1  0  0  0
  8  9  1  0  0  0
  8 30  1  0  0  0
  9 10  2  0  0  0
  9 11  1  0  0  0
 12 13  1  0  0  0
 12 14  1  0  0  0
 14 15  2  0  0  0
 14 16  1  0  0  0
 16 17  1  0  0  0
 16 25  1  0  0  0
 17 18  1  0  0  0
 18 19  1  0  0  0
 19 20  2  0  0  0
 19 21  1  0  0  0
 20 22  1  0  0  0
 21 23  2  0  0  0
 22 24  2  0  0  0
 23 24  1  0  0  0
 25 26  1  0  0  0
 26 27  1  0  0  0
 28 31  1  0  0  0
 28 32  1  0  0  0
M  END
>  <CHROM.0>
-156.59470384,-88.30233297,-32.66965452,26.77036107,-20.30266075,176.69994329
-160.49146577,-41.08483817

>  <CHROM.1>
77.28155966,-64.85545490,170.04780455,-89.42194035,126.70019059,-109.48628970
-99.49586519,81.93083245,-148.51815016,153.99492526,-2.37212041,58.84475101
-8.15396763,0.30968029,-0.43191816,0.20938738

>  <FORMUL>
      DPC    C20 H27 N3 O5

>  <HET>
 DPC  A 466      28

>  <HETNAM>
     DPC 5-ACETYLAMINO-4-AMINO-6-(PHENETHYL-PROPYL-CARBAMOYL)-5,
   2 DPC 6-DIHYDRO-4H-PYRAN-2-CARBOXYLIC ACID

>  <Name>
DPC.pdb

>  <RI>
2.76047e+07

>  <Rbt.Current_Directory>
/home/malgorzata/Desktop/rDOCK_IFD/Wyniki/11a_neuraminidase

>  <Rbt.Executable>
rbdock ($Id: //depot/dev/client3/rdock/2013.1/src/exe/rbdock.cxx#4 $)

>  <Rbt.Library>
libRbt.so (2013.1, Build901 2013/11/27)

>  <Rbt.Parameter_File>
/home/malgorzata/Desktop/rDock_2013.1_src/data/scripts/soft_docking.prm

>  <Rbt.Receptor>
cavity.prm

>  <SCORE>
-43.7834

>  <SCORE.INTER>
-23.2626

>  <SCORE.INTER.CONST>
1

>  <SCORE.INTER.POLAR>
-4.93098

>  <SCORE.INTER.REPUL>
0

>  <SCORE.INTER.ROT>
9

>  <SCORE.INTER.VDW>
-20.8972

>  <SCORE.INTER.norm>
-0.830806

>  <SCORE.INTRA>
5.57219

>  <SCORE.INTRA.DIHEDRAL>
33.9197

>  <SCORE.INTRA.DIHEDRAL.0>
7.68839

>  <SCORE.INTRA.POLAR>
0

>  <SCORE.INTRA.POLAR.0>
0

>  <SCORE.INTRA.REPUL>
0

>  <SCORE.INTRA.REPUL.0>
0

>  <SCORE.INTRA.VDW>
-1.21175

>  <SCORE.INTRA.VDW.0>
-2.73227

>  <SCORE.INTRA.norm>
0.199007

>  <SCORE.RESTR>
0

>  <SCORE.RESTR.CAVITY>
0

>  <SCORE.RESTR.norm>
0

>  <SCORE.SYSTEM>
-26.093

>  <SCORE.SYSTEM.CONST>
0

>  <SCORE.SYSTEM.DIHEDRAL>
5.3058

>  <SCORE.SYSTEM.POLAR>
-6.69704

>  <SCORE.SYSTEM.VDW>
-5.97596

>  <SCORE.SYSTEM.norm>
-0.931892

>  <SCORE.heavy>
28

>  <SCORE.norm>
-1.56369

$$$$
DPC.pdb
  rDOCK(R)          3D
libRbt.so/2013.1/901 2013/11/27
 32 33  0  0  0  0  0  0  0  0999 V2000
   -0.1584   56.4638   -7.1267 C   0  0  0  0  0  0
   -1.0641   56.3615   -6.3075 O   0  0  0  0  0  0
    0.8216   57.1484   -6.8653 O   0  0  0  0  0  0
   -0.2174   55.6571   -8.3588 C   0  0  0  0  0  0
    0.6746   54.6882   -8.5906 C   0  0  0  0  0  0
    0.5752   53.8315   -9.8236 C   0  0  0  0  0  0
   -0.3426   54.4475  -10.8762 C   0  0  0  0  0  0
   -0.7419   53.4172  -11.8279 N   0  0  0  0  0  0
   -0.9165   53.6195  -13.1428 C   0  0  0  0  0  0
   -0.7908   54.7271  -13.6366 O   0  0  0  0  0  0
   -1.2361   52.3766  -13.9936 C   0  0  0  0  0  0
   -1.5886   55.0004  -10.1884 C   0  0  0  0  0  0
   -1.2391   55.9074   -9.1775 O   0  0  0  0  0  0
   -2.3888   55.8237  -11.1724 C   0  0  0  0  0  0
   -1.8454   56.4773  -11.6398 O   0  0  0  0  0  0
   -3.6468   55.5011  -11.4408 N   0  0  0  0  0  0
   -4.3208   56.3057  -12.4838 C   0  0  0  0  0  0
   -4.7692   57.6767  -11.9678 C   0  0  0  0  0  0
   -4.3713   58.7338  -12.9786 C   0  0  0  0  0  0
   -3.7743   58.3619  -14.2039 C   0  0  0  0  0  0
   -4.5591   60.0953  -12.7003 C   0  0  0  0  0  0
   -3.3401   59.3396  -15.1163 C   0  0  0  0  0  0
   -4.1286   61.0689  -13.6071 C   0  0  0  0  0  0
   -3.5089   60.7022  -14.8095 C   0  0  0  0  0  0
   -4.3985   54.4710  -10.7274 C   0  0  0  0  0  0
   -5.9088   54.5429  -11.0108 C   0  0  0  0  0  0
   -6.8130   54.0463   -9.8672 C   0  0  0  0  0  0
    1.8919   53.6434  -10.3717 N   0  0  0  0  0  0
    1.6131   57.0396   -7.3548 H   0  0  0  0  0  0
   -0.8942   52.5086  -11.4808 H   0  0  0  0  0  0
    2.3259   54.5521  -10.5335 H   0  0  0  0  0  0
    1.8235   53.1372  -11.2546 H   0  0  0  0  0  0
  1  2  2  0  0  0
  1  3  1  0  0  0
  1  4  1  0  0  0
  3 29  1  0  0  0
  4  5  2  0  0  0
  4 13  1  0  0  0
  5  6  1  0  0  0
  6  7  1  0  0  0
  6 28  1  0  0  0
  7  8  1  0  0  0
  7 12  1  0  0  0
  8  9  1  0  0  0
  8 30  1  0  0  0
  9 10  2  0  0  0
  9 11  1  0  0  0
 12 13  1  0  0  0
 12 14  1  0  0  0
 14 15  2  0  0  0
 14 16  1  0  0  0
 16 17  1  0  0  0
 16 25  1  0  0  0
 17 18  1  0  0  0
 18 19  1  0  0  0
 19 20  2  0  0  0
 19 21  1  0  0  0
 20 22  1  0  0  0
 21 23  2  0  0  0
 22 24  2  0  0  0
 23 24  1  0  0  0
 25 26  1  0  0  0
 26 27  1  0  0  0
 28 31  1  0  0  0
 28 32  1  0  0  0
M  END
>  <CHROM.0>
71.80894621,-22.97705170,-94.42792799,3.38301279,-52.20186278,-56.57746519
-169.38899025,-62.15763112

>  <CHROM.1>
162.16094497,-113.51464102,-54.76600909,-143.89773044,-49.98635050,-77.63380896
166.16140958,133.88927722,4.03332385,-150.69894236,-2.17238826,56.02265825
-11.15849912,-0.00762684,-0.93809857,0.69181440

>  <FORMUL>
      DPC    C20 H27 N3 O5

>  <HET>
 DPC  A 466      28

>  <HETNAM>
     DPC 5-ACETYLAMINO-4-AMINO-6-(PHENETHYL-PROPYL-CARBAMOYL)-5,
   2 DPC 6-DIHYDRO-4H-PYRAN-2-CARBOXYLIC ACID

>  <Name>
DPC.pdb

>  <RI>
2.76047e+07

>  <Rbt.Current_Directory>
/home/malgorzata/Desktop/rDOCK_IFD/Wyniki/11a_neuraminidase

>  <Rbt.Executable>
rbdock ($Id: //depot/dev/client3/rdock/2013.1/src/exe/rbdock.cxx#4 $)

>  <Rbt.Library>
libRbt.so (2013.1, Build901 2013/11/27)

>  <Rbt.Parameter_File>
/home/malgorzata/Desktop/rDock_2013.1_src/data/scripts/soft_docking.prm

>  <Rbt.Receptor>
cavity.prm

>  <SCORE>
-46.5049

>  <SCORE.INTER>
-30.2727

>  <SCORE.INTER.CONST>
1

>  <SCORE.INTER.POLAR>
-5.50076

>  <SCORE.INTER.REPUL>
0.21828

>  <SCORE.INTER.ROT>
9

>  <SCORE.INTER.VDW>
-27.0615

>  <SCORE.INTER.norm>
-1.08117

>  <SCORE.INTRA>
7.96195

>  <SCORE.INTRA.DIHEDRAL>
16.9812

>  <SCORE.INTRA.DIHEDRAL.0>
7.68839

>  <SCORE.INTRA.POLAR>
0

>  <SCORE.INTRA.POLAR.0>
0

>  <SCORE.INTRA.REPUL>
0

>  <SCORE.INTRA.REPUL.0>
0

>  <SCORE.INTRA.VDW>
4.56571

>  <SCORE.INTRA.VDW.0>
-2.73227

>  <SCORE.INTRA.norm>
0.284356

>  <SCORE.RESTR>
2.53536

>  <SCORE.RESTR.CAVITY>
0.507072

>  <SCORE.RESTR.norm>
0.0905486

>  <SCORE.SYSTEM>
-26.7295

>  <SCORE.SYSTEM.CONST>
0

>  <SCORE.SYSTEM.DIHEDRAL>
3.10366

>  <SCORE.SYSTEM.POLAR>
-6.90375

>  <SCORE.SYSTEM.VDW>
-4.80858

>  <SCORE.SYSTEM.norm>
-0.954625

>  <SCORE.heavy>
28

>  <SCORE.norm>
-1.66089

$$$$
DPC.pdb
  rDOCK(R)          3D
libRbt.so/2013.1/901 2013/11/27
 32 33  0  0  0  0  0  0  0  0999 V2000
   -2.0499   58.2888   -5.7905 C   0  0  0  0  0  0
   -1.3137   58.3542   -4.8130 O   0  0  0  0  0  0
   -2.9648   59.0916   -5.9159 O   0  0  0  0  0  0
   -1.7363   57.3189   -6.8552 C   0  0  0  0  0  0
   -0.7907   56.3892   -6.6828 C   0  0  0  0  0  0
   -0.5144   55.3671   -7.7519 C   0  0  0  0  0  0
   -1.1115   55.7705   -9.0975 C   0  0  0  0  0  0
   -1.1981   54.5952   -9.9566 N   0  0  0  0  0  0
   -1.0372   54.6102  -11.2886 C   0  0  0  0  0  0
   -0.8452   55.6516  -11.8928 O   0  0  0  0  0  0
   -1.0620   53.2450  -12.0001 C   0  0  0  0  0  0
   -2.5152   56.3278   -8.8726 C   0  0  0  0  0  0
   -2.4900   57.3859   -7.9526 O   0  0  0  0  0  0
   -3.0242   56.9532  -10.1517 C   0  0  0  0  0  0
   -2.6697   57.8444  -10.2973 O   0  0  0  0  0  0
   -3.7254   56.2285  -11.0128 N   0  0  0  0  0  0
   -4.1017   56.8976  -12.2779 C   0  0  0  0  0  0
   -5.4204   57.6686  -12.1633 C   0  0  0  0  0  0
   -5.8214   58.1592  -13.5403 C   0  0  0  0  0  0
   -5.5582   59.4920  -13.9285 C   0  0  0  0  0  0
   -6.4872   57.3099  -14.4357 C   0  0  0  0  0  0
   -5.9884   59.9735  -15.1775 C   0  0  0  0  0  0
   -6.9149   57.7872  -15.6786 C   0  0  0  0  0  0
   -6.6812   59.1174  -16.0529 C   0  0  0  0  0  0
   -4.1927   54.8692  -10.7500 C   0  0  0  0  0  0
   -5.6712   54.8271  -10.3275 C   0  0  0  0  0  0
   -6.1968   53.4365   -9.9248 C   0  0  0  0  0  0
    0.9080   55.1941   -7.8795 N   0  0  0  0  0  0
   -2.9036   59.9375   -5.5175 H   0  0  0  0  0  0
   -1.3880   53.7291   -9.5287 H   0  0  0  0  0  0
    1.1352   54.2008   -7.8331 H   0  0  0  0  0  0
    1.3798   55.6866   -7.1210 H   0  0  0  0  0  0
  1  2  2  0  0  0
  1  3  1  0  0  0
  1  4  1  0  0  0
  3 29  1  0  0  0
  4  5  2  0  0  0
  4 13  1  0  0  0
  5  6  1  0  0  0
  6  7  1  0  0  0
  6 28  1  0  0  0
  7  8  1  0  0  0
  7 12  1  0  0  0
  8  9  1  0  0  0
  8 30  1  0  0  0
  9 10  2  0  0  0
  9 11  1  0  0  0
 12 13  1  0  0  0
 12 14  1  0  0  0
 14 15  2  0  0  0
 14 16  1  0  0  0
 16 17  1  0  0  0
 16 25  1  0  0  0
 17 18  1  0  0  0
 18 19  1  0  0  0
 19 20  2  0  0  0
 19 21  1  0  0  0
 20 22  1  0  0  0
 21 23  2  0  0  0
 22 24  2  0  0  0
 23 24  1  0  0  0
 25 26  1  0  0  0
 26 27  1  0  0  0
 28 31  1  0  0  0
 28 32  1  0  0  0
M  END
>  <CHROM.0>
54.74754614,16.48043444,91.44216106,-48.47390865,-81.73928868,-67.60350500
21.52151821,73.28482409

>  <CHROM.1>
26.27192202,9.83520246,129.04074874,-145.99668028,-79.95181325,-87.39182908
99.82106286,-172.38906640,-99.20772957,-175.24979163,-3.19370247,56.69063562
-10.34851807,0.56775554,-0.86158348,0.88104688

>  <FORMUL>
      DPC    C20 H27 N3 O5

>  <HET>
 DPC  A 466      28

>  <HETNAM>
     DPC 5-ACETYLAMINO-4-AMINO-6-(PHENETHYL-PROPYL-CARBAMOYL)-5,
   2 DPC 6-DIHYDRO-4H-PYRAN-2-CARBOXYLIC ACID

>  <Name>
DPC.pdb

>  <RI>
2.76047e+07

>  <Rbt.Current_Directory>
/home/malgorzata/Desktop/rDOCK_IFD/Wyniki/11a_neuraminidase

>  <Rbt.Executable>
rbdock ($Id: //depot/dev/client3/rdock/2013.1/src/exe/rbdock.cxx#4 $)

>  <Rbt.Library>
libRbt.so (2013.1, Build901 2013/11/27)

>  <Rbt.Parameter_File>
/home/malgorzata/Desktop/rDock_2013.1_src/data/scripts/soft_docking.prm

>  <Rbt.Receptor>
cavity.prm

>  <SCORE>
-58.3168

>  <SCORE.INTER>
-38.9407

>  <SCORE.INTER.CONST>
1

>  <SCORE.INTER.POLAR>
-6.26408

>  <SCORE.INTER.REPUL>
0.0905559

>  <SCORE.INTER.ROT>
9

>  <SCORE.INTER.VDW>
-32.4956

>  <SCORE.INTER.norm>
-1.39074

>  <SCORE.INTRA>
1.41047

>  <SCORE.INTRA.DIHEDRAL>
6.55063

>  <SCORE.INTRA.DIHEDRAL.0>
7.68839

>  <SCORE.INTRA.POLAR>
0

>  <SCORE.INTRA.POLAR.0>
0

>  <SCORE.INTRA.REPUL>
0

>  <SCORE.INTRA.REPUL.0>
0

>  <SCORE.INTRA.VDW>
0.100344

>  <SCORE.INTRA.VDW.0>
-2.73227

>  <SCORE.INTRA.norm>
0.0503739

>  <SCORE.RESTR>
0

>  <SCORE.RESTR.CAVITY>
0

>  <SCORE.RESTR.norm>
0

>  <SCORE.SYSTEM>
-20.7865

>  <SCORE.SYSTEM.CONST>
0

>  <SCORE.SYSTEM.DIHEDRAL>
3.15857

>  <SCORE.SYSTEM.POLAR>
-6.26233

>  <SCORE.SYSTEM.REPUL>
0.785736

>  <SCORE.SYSTEM.VDW>
-5.00259

>  <SCORE.SYSTEM.norm>
-0.742376

>  <SCORE.heavy>
28

>  <SCORE.norm>
-2.08274

$$$$
DPC.pdb
  rDOCK(R)          3D
libRbt.so/2013.1/901 2013/11/27
 32 33  0  0  0  0  0  0  0  0999 V2000
   -2.2789   53.7050   -8.7918 C   0  0  0  0  0  0
   -2.0719   53.4260   -9.9670 O   0  0  0  0  0  0
   -2.5851   52.8208   -8.0032 O   0  0  0  0  0  0
   -2.0316   55.0834   -8.3322 C   0  0  0  0  0  0
   -0.8866   55.4113   -7.7241 C   0  0  0  0  0  0
   -0.6175   56.8320   -7.3079 C   0  0  0  0  0  0
   -1.8897   57.6752   -7.2938 C   0  0  0  0  0  0
   -1.5299   59.0883   -7.3146 N   0  0  0  0  0  0
   -1.6706   59.9268   -6.2765 C   0  0  0  0  0  0
   -2.1671   59.5581   -5.2258 O   0  0  0  0  0  0
   -1.1321   61.3564   -6.4689 C   0  0  0  0  0  0
   -2.7147   57.3528   -8.5375 C   0  0  0  0  0  0
   -2.9777   55.9777   -8.6187 O   0  0  0  0  0  0
   -4.0806   57.9908   -8.4204 C   0  0  0  0  0  0
   -4.3367   58.1561   -7.4995 O   0  0  0  0  0  0
   -4.7119   58.4140   -9.5071 N   0  0  0  0  0  0
   -6.0001   59.1083   -9.2873 C   0  0  0  0  0  0
   -5.8532   60.6331   -9.2980 C   0  0  0  0  0  0
   -5.6454   61.0945  -10.7268 C   0  0  0  0  0  0
   -4.5743   61.9572  -11.0504 C   0  0  0  0  0  0
   -6.5297   60.6996  -11.7411 C   0  0  0  0  0  0
   -4.4158   62.4440  -12.3598 C   0  0  0  0  0  0
   -6.3727   61.1823  -13.0441 C   0  0  0  0  0  0
   -5.3284   62.0620  -13.3600 C   0  0  0  0  0  0
   -4.2482   58.1707  -10.8712 C   0  0  0  0  0  0
   -4.2506   56.6760  -11.2352 C   0  0  0  0  0  0
   -4.3944   56.3693  -12.7376 C   0  0  0  0  0  0
   -0.0155   56.8322   -6.0013 N   0  0  0  0  0  0
   -2.7720   53.0338   -7.1100 H   0  0  0  0  0  0
   -1.1572   59.4530   -8.1496 H   0  0  0  0  0  0
    0.6966   56.1033   -5.9549 H   0  0  0  0  0  0
   -0.7314   56.6534   -5.2970 H   0  0  0  0  0  0
  1  2  2  0  0  0
  1  3  1  0  0  0
  1  4  1  0  0  0
  3 29  1  0  0  0
  4  5  2  0  0  0
  4 13  1  0  0  0
  5  6  1  0  0  0
  6  7  1  0  0  0
  6 28  1  0  0  0
  7  8  1  0  0  0
  7 12  1  0  0  0
  8  9  1  0  0  0
  8 30  1  0  0  0
  9 10  2  0  0  0
  9 11  1  0  0  0
 12 13  1  0  0  0
 12 14  1  0  0  0
 14 15  2  0  0  0
 14 16  1  0  0  0
 16 17  1  0  0  0
 16 25  1  0  0  0
 17 18  1  0  0  0
 18 19  1  0  0  0
 19 20  2  0  0  0
 19 21  1  0  0  0
 20 22  1  0  0  0
 21 23  2  0  0  0
 22 24  2  0  0  0
 23 24  1  0  0  0
 25 26  1  0  0  0
 26 27  1  0  0  0
 28 31  1  0  0  0
 28 32  1  0  0  0
M  END
>  <CHROM.0>
-77.70652432,67.61183217,-98.55650005,-124.98864616,-66.72550039,13.32254400
-109.28519217,74.20164957

>  <CHROM.1>
-177.96949573,-97.53538250,43.55043324,-108.96273401,-23.83848298,97.52432248
64.46878112,74.07283482,-129.45127094,154.00010081,-3.36109581,58.12838728
-9.11325693,0.55006269,0.95926385,-2.85049673

>  <FORMUL>
      DPC    C20 H27 N3 O5

>  <HET>
 DPC  A 466      28

>  <HETNAM>
     DPC 5-ACETYLAMINO-4-AMINO-6-(PHENETHYL-PROPYL-CARBAMOYL)-5,
   2 DPC 6-DIHYDRO-4H-PYRAN-2-CARBOXYLIC ACID

>  <Name>
DPC.pdb

>  <RI>
2.76047e+07

>  <Rbt.Current_Directory>
/home/malgorzata/Desktop/rDOCK_IFD/Wyniki/11a_neuraminidase

>  <Rbt.Executable>
rbdock ($Id: //depot/dev/client3/rdock/2013.1/src/exe/rbdock.cxx#4 $)

>  <Rbt.Library>
libRbt.so (2013.1, Build901 2013/11/27)

>  <Rbt.Parameter_File>
/home/malgorzata/Desktop/rDock_2013.1_src/data/scripts/soft_docking.prm

>  <Rbt.Receptor>
cavity.prm

>  <SCORE>
-49.6117

>  <SCORE.INTER>
-31.2468

>  <SCORE.INTER.CONST>
1

>  <SCORE.INTER.POLAR>
-6.10186

>  <SCORE.INTER.REPUL>
0.058371

>  <SCORE.INTER.ROT>
9

>  <SCORE.INTER.VDW>
-25.1923

>  <SCORE.INTER.norm>
-1.11596

>  <SCORE.INTRA>
3.12404

>  <SCORE.INTRA.DIHEDRAL>
12.5989

>  <SCORE.INTRA.DIHEDRAL.0>
7.68839

>  <SCORE.INTRA.POLAR>
0

>  <SCORE.INTRA.POLAR.0>
0

>  <SCORE.INTRA.REPUL>
0

>  <SCORE.INTRA.REPUL.0>
0

>  <SCORE.INTRA.VDW>
0.604248

>  <SCORE.INTRA.VDW.0>
-2.73227

>  <SCORE.INTRA.norm>
0.111573

>  <SCORE.RESTR>
2.99111

>  <SCORE.RESTR.CAVITY>
0.598221

>  <SCORE.RESTR.norm>
0.106825

>  <SCORE.SYSTEM>
-24.4801

>  <SCORE.SYSTEM.CONST>
0

>  <SCORE.SYSTEM.DIHEDRAL>
7.95291

>  <SCORE.SYSTEM.POLAR>
-6.54212

>  <SCORE.SYSTEM.REPUL>
0.031885

>  <SCORE.SYSTEM.VDW>
-6.37276

>  <SCORE.SYSTEM.norm>
-0.874289

>  <SCORE.heavy>
28

>  <SCORE.norm>
-1.77185

$$$$
DPC.pdb
  rDOCK(R)          3D
libRbt.so/2013.1/901 2013/11/27
 32 33  0  0  0  0  0  0  0  0999 V2000
   -0.3749   59.5352   -6.7155 C   0  0  0  0  0  0
   -0.6305   59.3639   -5.5292 O   0  0  0  0  0  0
   -0.2192   60.6705   -7.1448 O   0  0  0  0  0  0
   -0.1387   58.3583   -7.5709 C   0  0  0  0  0  0
    0.7762   57.4404   -7.2415 C   0  0  0  0  0  0
    0.9731   56.2133   -8.0895 C   0  0  0  0  0  0
    0.3423   56.3650   -9.4712 C   0  0  0  0  0  0
    0.1788   55.0465  -10.0723 N   0  0  0  0  0  0
    1.1298   54.3998  -10.7636 C   0  0  0  0  0  0
    2.2157   54.9103  -10.9788 O   0  0  0  0  0  0
    0.7923   52.9705  -11.2261 C   0  0  0  0  0  0
   -1.0296   57.0189   -9.3233 C   0  0  0  0  0  0
   -0.9295   58.2378   -8.6371 O   0  0  0  0  0  0
   -1.5615   57.3974  -10.6872 C   0  0  0  0  0  0
   -0.8559   57.6312  -11.3104 O   0  0  0  0  0  0
   -2.8451   57.2243  -10.9715 N   0  0  0  0  0  0
   -3.2562   57.5351  -12.3587 C   0  0  0  0  0  0
   -4.2269   58.7179  -12.4311 C   0  0  0  0  0  0
   -3.4404   59.9785  -12.7311 C   0  0  0  0  0  0
   -2.6760   60.6014  -11.7193 C   0  0  0  0  0  0
   -3.4853   60.5626  -14.0052 C   0  0  0  0  0  0
   -1.9996   61.8080  -11.9715 C   0  0  0  0  0  0
   -2.8123   61.7621  -14.2578 C   0  0  0  0  0  0
   -2.0782   62.3970  -13.2467 C   0  0  0  0  0  0
   -3.8545   56.8252   -9.9932 C   0  0  0  0  0  0
   -3.9282   55.2992   -9.8136 C   0  0  0  0  0  0
   -5.3198   54.6804  -10.0429 C   0  0  0  0  0  0
    2.3821   55.9542   -8.2204 N   0  0  0  0  0  0
   -0.2072   60.8243   -8.0690 H   0  0  0  0  0  0
   -0.6913   54.5989   -9.9631 H   0  0  0  0  0  0
    2.6556   55.2226   -7.5644 H   0  0  0  0  0  0
    2.9048   56.8062   -8.0169 H   0  0  0  0  0  0
  1  2  2  0  0  0
  1  3  1  0  0  0
  1  4  1  0  0  0
  3 29  1  0  0  0
  4  5  2  0  0  0
  4 13  1  0  0  0
  5  6  1  0  0  0
  6  7  1  0  0  0
  6 28  1  0  0  0
  7  8  1  0  0  0
  7 12  1  0  0  0
  8  9  1  0  0  0
  8 30  1  0  0  0
  9 10  2  0  0  0
  9 11  1  0  0  0
 12 13  1  0  0  0
 12 14  1  0  0  0
 14 15  2  0  0  0
 14 16  1  0  0  0
 16 17  1  0  0  0
 16 25  1  0  0  0
 17 18  1  0  0  0
 18 19  1  0  0  0
 19 20  2  0  0  0
 19 21  1  0  0  0
 20 22  1  0  0  0
 21 23  2  0  0  0
 22 24  2  0  0  0
 23 24  1  0  0  0
 25 26  1  0  0  0
 26 27  1  0  0  0
 28 31  1  0  0  0
 28 32  1  0  0  0
M  END
>  <CHROM.0>
57.62443430,109.24847636,119.57461019,33.22793922,-27.55940577,-2.96138285
-167.33973014,34.37097423

>  <CHROM.1>
-166.88210211,-54.04609088,99.61322564,-85.43314171,-31.50311898,-115.25785901
-85.23547117,96.08216089,-75.86114677,-124.33975379,-1.27603607,57.75775476
-10.17315569,-0.46449912,-0.91650663,0.28835701

>  <FORMUL>
      DPC    C20 H27 N3 O5

>  <HET>
 DPC  A 466      28

>  <HETNAM>
     DPC 5-ACETYLAMINO-4-AMINO-6-(PHENETHYL-PROPYL-CARBAMOYL)-5,
   2 DPC 6-DIHYDRO-4H-PYRAN-2-CARBOXYLIC ACID

>  <Name>
DPC.pdb

>  <RI>
2.76047e+07

>  <Rbt.Current_Directory>
/home/malgorzata/Desktop/rDOCK_IFD/Wyniki/11a_neuraminidase

>  <Rbt.Executable>
rbdock ($Id: //depot/dev/client3/rdock/2013.1/src/exe/rbdock.cxx#4 $)

>  <Rbt.Library>
libRbt.so (2013.1, Build901 2013/11/27)

>  <Rbt.Parameter_File>
/home/malgorzata/Desktop/rDock_2013.1_src/data/scripts/soft_docking.prm

>  <Rbt.Receptor>
cavity.prm

>  <SCORE>
-50.4423

>  <SCORE.INTER>
-26.9886

>  <SCORE.INTER.CONST>
1

>  <SCORE.INTER.POLAR>
-4.59202

>  <SCORE.INTER.REPUL>
0.0146362

>  <SCORE.INTER.ROT>
9

>  <SCORE.INTER.VDW>
-25.8489

>  <SCORE.INTER.norm>
-0.96388

>  <SCORE.INTRA>
4.29706

>  <SCORE.INTRA.DIHEDRAL>
19.4166

>  <SCORE.INTRA.DIHEDRAL.0>
7.68839

>  <SCORE.INTRA.POLAR>
0

>  <SCORE.INTRA.POLAR.0>
0

>  <SCORE.INTRA.REPUL>
0

>  <SCORE.INTRA.REPUL.0>
0

>  <SCORE.INTRA.VDW>
0.413748

>  <SCORE.INTRA.VDW.0>
-2.73227

>  <SCORE.INTRA.norm>
0.153466

>  <SCORE.RESTR>
0.739318

>  <SCORE.RESTR.CAVITY>
0.147864

>  <SCORE.RESTR.norm>
0.0264042

>  <SCORE.SYSTEM>
-28.4901

>  <SCORE.SYSTEM.CONST>
0

>  <SCORE.SYSTEM.DIHEDRAL>
2.58331

>  <SCORE.SYSTEM.POLAR>
-7.25436

>  <SCORE.SYSTEM.REPUL>
0.17797

>  <SCORE.SYSTEM.VDW>
-6.00675

>  <SCORE.SYSTEM.norm>
-1.0175

>  <SCORE.heavy>
28

>  <SCORE.norm>
-1.80151

$$$$
