DPC.pdb
  rDOCK(R)          3D
libRbt.so/2013.1/901 2013/11/27
 32 33  0  0  0  0  0  0  0  0999 V2000
   -2.2045   57.8605   -4.9412 C   0  0  0  0  0  0
   -1.5587   58.0890   -3.9250 O   0  0  0  0  0  0
   -3.3620   58.2485   -5.0245 O   0  0  0  0  0  0
   -1.5277   57.2306   -6.0891 C   0  0  0  0  0  0
   -0.4118   56.5131   -5.9213 C   0  0  0  0  0  0
    0.2426   55.8262   -7.0892 C   0  0  0  0  0  0
   -0.2586   56.3671   -8.4257 C   0  0  0  0  0  0
    0.0583   55.4110   -9.4803 N   0  0  0  0  0  0
    1.2919   54.9611   -9.7568 C   0  0  0  0  0  0
    2.2673   55.3710   -9.1512 O   0  0  0  0  0  0
    1.4004   53.8731  -10.8409 C   0  0  0  0  0  0
   -1.7733   56.5460   -8.3540 C   0  0  0  0  0  0
   -2.1280   57.3643   -7.2717 O   0  0  0  0  0  0
   -2.2533   57.3034   -9.5715 C   0  0  0  0  0  0
   -1.5948   57.3197  -10.2836 O   0  0  0  0  0  0
   -3.5134   57.7096   -9.6475 N   0  0  0  0  0  0
   -3.9163   58.3603  -10.9140 C   0  0  0  0  0  0
   -4.1958   59.8565  -10.7410 C   0  0  0  0  0  0
   -3.7592   60.5841  -11.9970 C   0  0  0  0  0  0
   -2.6854   61.5014  -11.9546 C   0  0  0  0  0  0
   -4.4333   60.3833  -13.2102 C   0  0  0  0  0  0
   -2.3194   62.2308  -13.0995 C   0  0  0  0  0  0
   -4.0698   61.1074  -14.3500 C   0  0  0  0  0  0
   -3.0245   62.0396  -14.3018 C   0  0  0  0  0  0
   -4.4724   57.6153   -8.5490 C   0  0  0  0  0  0
   -5.0743   56.2061   -8.4134 C   0  0  0  0  0  0
   -6.3911   55.9812   -9.1798 C   0  0  0  0  0  0
    1.6680   55.9968   -6.9955 N   0  0  0  0  0  0
   -3.8690   58.3801   -4.2476 H   0  0  0  0  0  0
   -0.6858   55.0715  -10.0283 H   0  0  0  0  0  0
    1.9984   56.5408   -7.7926 H   0  0  0  0  0  0
    2.1206   55.0828   -6.9965 H   0  0  0  0  0  0
  1  2  2  0  0  0
  1  3  1  0  0  0
  1  4  1  0  0  0
  3 29  1  0  0  0
  4  5  2  0  0  0
  4 13  1  0  0  0
  5  6  1  0  0  0
  6  7  1  0  0  0
  6 28  1  0  0  0
  7  8  1  0  0  0
  7 12  1  0  0  0
  8  9  1  0  0  0
  8 30  1  0  0  0
  9 10  2  0  0  0
  9 11  1  0  0  0
 12 13  1  0  0  0
 12 14  1  0  0  0
 14 15  2  0  0  0
 14 16  1  0  0  0
 16 17  1  0  0  0
 16 25  1  0  0  0
 17 18  1  0  0  0
 18 19  1  0  0  0
 19 20  2  0  0  0
 19 21  1  0  0  0
 20 22  1  0  0  0
 21 23  2  0  0  0
 22 24  2  0  0  0
 23 24  1  0  0  0
 25 26  1  0  0  0
 26 27  1  0  0  0
 28 31  1  0  0  0
 28 32  1  0  0  0
M  END
>  <CHROM.0>
-43.33079874,-14.61757104,159.59988633,-37.45086765,-84.80679033,103.78418362
-145.02412603,-58.18656049

>  <CHROM.1>
-25.91459184,22.63834767,-116.32625519,-56.59357363,16.27558260,-110.99312232
-80.35626317,145.23515592,-114.26671729,-92.34940227,-2.04295482,57.71034836
-9.18240299,1.03827427,-0.55463740,1.93345971

>  <FORMUL>
      DPC    C20 H27 N3 O5

>  <HET>
 DPC  A 466      28

>  <HETNAM>
     DPC 5-ACETYLAMINO-4-AMINO-6-(PHENETHYL-PROPYL-CARBAMOYL)-5,
   2 DPC 6-DIHYDRO-4H-PYRAN-2-CARBOXYLIC ACID

>  <Name>
DPC.pdb

>  <RI>
9.87254e+06

>  <Rbt.Current_Directory>
/home/malgorzata/Desktop/rDOCK_IFD/test11

>  <Rbt.Executable>
rbdock ($Id: //depot/dev/client3/rdock/2013.1/src/exe/rbdock.cxx#4 $)

>  <Rbt.Library>
libRbt.so (2013.1, Build901 2013/11/27)

>  <Rbt.Parameter_File>
/home/malgorzata/Desktop/rDock_2013.1_src/data/scripts/soft_docking.prm

>  <Rbt.Receptor>
cavity.prm

>  <SCORE>
-45.199

>  <SCORE.INTER>
-31.2101

>  <SCORE.INTER.CONST>
1

>  <SCORE.INTER.POLAR>
-5.8272

>  <SCORE.INTER.REPUL>
0.022731

>  <SCORE.INTER.ROT>
9

>  <SCORE.INTER.VDW>
-25.9113

>  <SCORE.INTER.norm>
-1.11465

>  <SCORE.INTRA>
7.49161

>  <SCORE.INTRA.DIHEDRAL>
11.3085

>  <SCORE.INTRA.DIHEDRAL.0>
7.68839

>  <SCORE.INTRA.POLAR>
-0.119458

>  <SCORE.INTRA.POLAR.0>
0

>  <SCORE.INTRA.REPUL>
0

>  <SCORE.INTRA.REPUL.0>
0

>  <SCORE.INTRA.VDW>
5.63606

>  <SCORE.INTRA.VDW.0>
-2.73227

>  <SCORE.INTRA.norm>
0.267557

>  <SCORE.RESTR>
0

>  <SCORE.RESTR.CAVITY>
0

>  <SCORE.RESTR.norm>
0

>  <SCORE.SYSTEM>
-21.4805

>  <SCORE.SYSTEM.CONST>
0

>  <SCORE.SYSTEM.DIHEDRAL>
5.05659

>  <SCORE.SYSTEM.POLAR>
-6.37699

>  <SCORE.SYSTEM.REPUL>
0.786812

>  <SCORE.SYSTEM.VDW>
-6.26109

>  <SCORE.SYSTEM.norm>
-0.76716

>  <SCORE.heavy>
28

>  <SCORE.norm>
-1.61425

$$$$
DPC.pdb
  rDOCK(R)          3D
libRbt.so/2013.1/901 2013/11/27
 32 33  0  0  0  0  0  0  0  0999 V2000
   -2.1260   59.1845   -5.7514 C   0  0  0  0  0  0
   -1.1641   59.4953   -5.0584 O   0  0  0  0  0  0
   -3.1831   59.7883   -5.6277 O   0  0  0  0  0  0
   -1.9467   58.1706   -6.8060 C   0  0  0  0  0  0
   -0.9192   57.3155   -6.7712 C   0  0  0  0  0  0
   -0.7734   56.2469   -7.8204 C   0  0  0  0  0  0
   -1.6406   56.5251   -9.0453 C   0  0  0  0  0  0
   -1.7993   55.2944   -9.8114 N   0  0  0  0  0  0
   -1.3388   55.1066  -11.0577 C   0  0  0  0  0  0
   -0.7767   56.0000  -11.6677 O   0  0  0  0  0  0
   -1.5172   53.6975  -11.6520 C   0  0  0  0  0  0
   -3.0146   57.0057   -8.5841 C   0  0  0  0  0  0
   -2.8958   58.1197   -7.7406 O   0  0  0  0  0  0
   -3.7996   57.5149   -9.7718 C   0  0  0  0  0  0
   -4.7218   57.2142   -9.7654 O   0  0  0  0  0  0
   -3.2651   58.4160  -10.5849 N   0  0  0  0  0  0
   -4.1401   58.9241  -11.6647 C   0  0  0  0  0  0
   -4.6437   57.8078  -12.5850 C   0  0  0  0  0  0
   -5.2464   58.4327  -13.8275 C   0  0  0  0  0  0
   -6.4834   57.9716  -14.3309 C   0  0  0  0  0  0
   -4.5719   59.4531  -14.5133 C   0  0  0  0  0  0
   -7.0149   58.4990  -15.5210 C   0  0  0  0  0  0
   -5.0998   59.9792  -15.6966 C   0  0  0  0  0  0
   -6.3118   59.5017  -16.2134 C   0  0  0  0  0  0
   -1.8755   58.8621  -10.5134 C   0  0  0  0  0  0
   -1.7447   60.2916   -9.9604 C   0  0  0  0  0  0
   -0.8763   61.2425  -10.8051 C   0  0  0  0  0  0
    0.6087   56.1565   -8.2093 N   0  0  0  0  0  0
   -3.1904   60.7253   -5.6288 H   0  0  0  0  0  0
   -2.2784   54.5482   -9.3837 H   0  0  0  0  0  0
    1.0299   55.3333   -7.7787 H   0  0  0  0  0  0
    1.1042   56.9928   -7.9005 H   0  0  0  0  0  0
  1  2  2  0  0  0
  1  3  1  0  0  0
  1  4  1  0  0  0
  3 29  1  0  0  0
  4  5  2  0  0  0
  4 13  1  0  0  0
  5  6  1  0  0  0
  6  7  1  0  0  0
  6 28  1  0  0  0
  7  8  1  0  0  0
  7 12  1  0  0  0
  8  9  1  0  0  0
  8 30  1  0  0  0
  9 10  2  0  0  0
  9 11  1  0  0  0
 12 13  1  0  0  0
 12 14  1  0  0  0
 14 15  2  0  0  0
 14 16  1  0  0  0
 16 17  1  0  0  0
 16 25  1  0  0  0
 17 18  1  0  0  0
 18 19  1  0  0  0
 19 20  2  0  0  0
 19 21  1  0  0  0
 20 22  1  0  0  0
 21 23  2  0  0  0
 22 24  2  0  0  0
 23 24  1  0  0  0
 25 26  1  0  0  0
 26 27  1  0  0  0
 28 31  1  0  0  0
 28 32  1  0  0  0
M  END
>  <CHROM.0>
62.93984795,144.85355313,-97.34640296,95.24122298,89.64737626,-91.38079257
-160.90796258,2.67957944

>  <CHROM.1>
48.86775228,20.14575277,103.63633273,-115.75474682,136.50782869,-58.85450666
-107.56416561,-166.79230863,-134.91474486,-129.81131234,-2.87510003,57.93194082
-10.30654112,0.64430548,-0.94777945,0.85762822

>  <FORMUL>
      DPC    C20 H27 N3 O5

>  <HET>
 DPC  A 466      28

>  <HETNAM>
     DPC 5-ACETYLAMINO-4-AMINO-6-(PHENETHYL-PROPYL-CARBAMOYL)-5,
   2 DPC 6-DIHYDRO-4H-PYRAN-2-CARBOXYLIC ACID

>  <Name>
DPC.pdb

>  <RI>
9.87254e+06

>  <Rbt.Current_Directory>
/home/malgorzata/Desktop/rDOCK_IFD/test11

>  <Rbt.Executable>
rbdock ($Id: //depot/dev/client3/rdock/2013.1/src/exe/rbdock.cxx#4 $)

>  <Rbt.Library>
libRbt.so (2013.1, Build901 2013/11/27)

>  <Rbt.Parameter_File>
/home/malgorzata/Desktop/rDock_2013.1_src/data/scripts/soft_docking.prm

>  <Rbt.Receptor>
cavity.prm

>  <SCORE>
-57.5712

>  <SCORE.INTER>
-34.316

>  <SCORE.INTER.CONST>
1

>  <SCORE.INTER.POLAR>
-6.02741

>  <SCORE.INTER.REPUL>
0.15253

>  <SCORE.INTER.ROT>
9

>  <SCORE.INTER.VDW>
-28.9855

>  <SCORE.INTER.norm>
-1.22557

>  <SCORE.INTRA>
6.03947

>  <SCORE.INTRA.DIHEDRAL>
20.6451

>  <SCORE.INTRA.DIHEDRAL.0>
7.68839

>  <SCORE.INTRA.POLAR>
0

>  <SCORE.INTRA.POLAR.0>
0

>  <SCORE.INTRA.REPUL>
0

>  <SCORE.INTRA.REPUL.0>
0

>  <SCORE.INTRA.VDW>
1.91044

>  <SCORE.INTRA.VDW.0>
-2.73227

>  <SCORE.INTRA.norm>
0.215695

>  <SCORE.RESTR>
0.130457

>  <SCORE.RESTR.CAVITY>
0.130457

>  <SCORE.RESTR.norm>
0.0046592

>  <SCORE.SYSTEM>
-29.4251

>  <SCORE.SYSTEM.CONST>
0

>  <SCORE.SYSTEM.DIHEDRAL>
2.84864

>  <SCORE.SYSTEM.POLAR>
-7.16756

>  <SCORE.SYSTEM.VDW>
-6.47969

>  <SCORE.SYSTEM.norm>
-1.0509

>  <SCORE.heavy>
28

>  <SCORE.norm>
-2.05611

$$$$
DPC.pdb
  rDOCK(R)          3D
libRbt.so/2013.1/901 2013/11/27
 32 33  0  0  0  0  0  0  0  0999 V2000
   -3.3861   60.4464   -6.7978 C   0  0  0  0  0  0
   -2.7218   61.2612   -6.1679 O   0  0  0  0  0  0
   -4.5500   60.6994   -7.0780 O   0  0  0  0  0  0
   -2.7260   59.2321   -7.3098 C   0  0  0  0  0  0
   -1.8823   58.5322   -6.5440 C   0  0  0  0  0  0
   -1.2552   57.2629   -7.0535 C   0  0  0  0  0  0
   -1.3741   57.1342   -8.5699 C   0  0  0  0  0  0
   -1.1576   55.7438   -8.9527 N   0  0  0  0  0  0
    0.0472   55.1700   -9.0935 C   0  0  0  0  0  0
    1.0752   55.8090   -8.9483 O   0  0  0  0  0  0
    0.0589   53.6612   -9.4005 C   0  0  0  0  0  0
   -2.7782   57.5557   -8.9969 C   0  0  0  0  0  0
   -3.0717   58.8483   -8.5386 O   0  0  0  0  0  0
   -2.8386   57.6679  -10.5036 C   0  0  0  0  0  0
   -2.0889   58.1620  -10.8706 O   0  0  0  0  0  0
   -3.7465   56.9826  -11.1853 N   0  0  0  0  0  0
   -3.6707   57.0820  -12.6598 C   0  0  0  0  0  0
   -4.2347   58.4049  -13.1876 C   0  0  0  0  0  0
   -5.5638   58.1346  -13.8643 C   0  0  0  0  0  0
   -5.6126   57.8064  -15.2377 C   0  0  0  0  0  0
   -6.7647   58.2379  -13.1477 C   0  0  0  0  0  0
   -6.8456   57.6219  -15.8878 C   0  0  0  0  0  0
   -7.9918   58.0539  -13.7927 C   0  0  0  0  0  0
   -8.0428   57.7579  -15.1617 C   0  0  0  0  0  0
   -4.8286   56.2179  -10.5693 C   0  0  0  0  0  0
   -6.0612   57.0857  -10.2626 C   0  0  0  0  0  0
   -6.8413   56.6887   -8.9955 C   0  0  0  0  0  0
    0.1302   57.2358   -6.6670 N   0  0  0  0  0  0
   -5.0654   60.0737   -7.5481 H   0  0  0  0  0  0
   -1.9518   55.1865   -9.1196 H   0  0  0  0  0  0
    0.5838   58.0988   -6.9667 H   0  0  0  0  0  0
    0.5905   56.4391   -7.1073 H   0  0  0  0  0  0
  1  2  2  0  0  0
  1  3  1  0  0  0
  1  4  1  0  0  0
  3 29  1  0  0  0
  4  5  2  0  0  0
  4 13  1  0  0  0
  5  6  1  0  0  0
  6  7  1  0  0  0
  6 28  1  0  0  0
  7  8  1  0  0  0
  7 12  1  0  0  0
  8  9  1  0  0  0
  8 30  1  0  0  0
  9 10  2  0  0  0
  9 11  1  0  0  0
 12 13  1  0  0  0
 12 14  1  0  0  0
 14 15  2  0  0  0
 14 16  1  0  0  0
 16 17  1  0  0  0
 16 25  1  0  0  0
 17 18  1  0  0  0
 18 19  1  0  0  0
 19 20  2  0  0  0
 19 21  1  0  0  0
 20 22  1  0  0  0
 21 23  2  0  0  0
 22 24  2  0  0  0
 23 24  1  0  0  0
 25 26  1  0  0  0
 26 27  1  0  0  0
 28 31  1  0  0  0
 28 32  1  0  0  0
M  END
>  <CHROM.0>
59.16403083,-25.09071342,-7.83738952,17.11742559,-5.78322314,-163.00259869
-175.76984613,17.70931334

>  <CHROM.1>
-179.06611194,44.28318315,-52.89056251,-81.33474050,-46.98756225,-77.00289878
85.51884520,-107.60807581,-88.86558074,-146.11945922,-3.46066192,57.66370920
-10.10094800,0.68056382,-0.60111877,0.98557084

>  <FORMUL>
      DPC    C20 H27 N3 O5

>  <HET>
 DPC  A 466      28

>  <HETNAM>
     DPC 5-ACETYLAMINO-4-AMINO-6-(PHENETHYL-PROPYL-CARBAMOYL)-5,
   2 DPC 6-DIHYDRO-4H-PYRAN-2-CARBOXYLIC ACID

>  <Name>
DPC.pdb

>  <RI>
9.87254e+06

>  <Rbt.Current_Directory>
/home/malgorzata/Desktop/rDOCK_IFD/test11

>  <Rbt.Executable>
rbdock ($Id: //depot/dev/client3/rdock/2013.1/src/exe/rbdock.cxx#4 $)

>  <Rbt.Library>
libRbt.so (2013.1, Build901 2013/11/27)

>  <Rbt.Parameter_File>
/home/malgorzata/Desktop/rDock_2013.1_src/data/scripts/soft_docking.prm

>  <Rbt.Receptor>
cavity.prm

>  <SCORE>
-54.763

>  <SCORE.INTER>
-28.566

>  <SCORE.INTER.CONST>
1

>  <SCORE.INTER.POLAR>
-3.47728

>  <SCORE.INTER.REPUL>
0.0177332

>  <SCORE.INTER.ROT>
9

>  <SCORE.INTER.VDW>
-31.2319

>  <SCORE.INTER.norm>
-1.02021

>  <SCORE.INTRA>
1.94474

>  <SCORE.INTRA.DIHEDRAL>
11.9347

>  <SCORE.INTRA.DIHEDRAL.0>
7.68839

>  <SCORE.INTRA.POLAR>
0

>  <SCORE.INTRA.POLAR.0>
0

>  <SCORE.INTRA.REPUL>
0

>  <SCORE.INTRA.REPUL.0>
0

>  <SCORE.INTRA.VDW>
-0.442191

>  <SCORE.INTRA.VDW.0>
-2.73227

>  <SCORE.INTRA.norm>
0.0694551

>  <SCORE.RESTR>
0

>  <SCORE.RESTR.CAVITY>
0

>  <SCORE.RESTR.norm>
0

>  <SCORE.SYSTEM>
-28.1417

>  <SCORE.SYSTEM.CONST>
0

>  <SCORE.SYSTEM.DIHEDRAL>
2.40372

>  <SCORE.SYSTEM.POLAR>
-6.94443

>  <SCORE.SYSTEM.VDW>
-5.73255

>  <SCORE.SYSTEM.norm>
-1.00506

>  <SCORE.heavy>
28

>  <SCORE.norm>
-1.95582

$$$$
DPC.pdb
  rDOCK(R)          3D
libRbt.so/2013.1/901 2013/11/27
 32 33  0  0  0  0  0  0  0  0999 V2000
   -4.8078   56.9979   -8.1319 C   0  0  0  0  0  0
   -3.9320   57.6822   -7.6156 O   0  0  0  0  0  0
   -5.5478   56.3259   -7.4261 O   0  0  0  0  0  0
   -5.0270   57.0991   -9.5860 C   0  0  0  0  0  0
   -6.2411   57.3585  -10.0827 C   0  0  0  0  0  0
   -6.4471   57.5159  -11.5649 C   0  0  0  0  0  0
   -5.2711   56.9663  -12.3678 C   0  0  0  0  0  0
   -5.3117   57.5167  -13.7177 N   0  0  0  0  0  0
   -5.6379   58.7837  -14.0156 C   0  0  0  0  0  0
   -5.9761   59.5722  -13.1494 O   0  0  0  0  0  0
   -5.5174   59.1957  -15.4942 C   0  0  0  0  0  0
   -3.9673   57.3906  -11.6957 C   0  0  0  0  0  0
   -3.9432   56.9847  -10.3536 O   0  0  0  0  0  0
   -2.8067   56.6588  -12.3311 C   0  0  0  0  0  0
   -2.0929   57.2569  -12.6026 O   0  0  0  0  0  0
   -2.7667   55.3334  -12.3132 N   0  0  0  0  0  0
   -1.5495   54.7075  -12.8757 C   0  0  0  0  0  0
   -0.8184   53.8281  -11.8565 C   0  0  0  0  0  0
   -0.2027   54.7180  -10.7951 C   0  0  0  0  0  0
   -1.0261   55.4795   -9.9357 C   0  0  0  0  0  0
    1.1901   54.8242  -10.6713 C   0  0  0  0  0  0
   -0.4618   56.3591   -8.9951 C   0  0  0  0  0  0
    1.7527   55.6980   -9.7356 C   0  0  0  0  0  0
    0.9371   56.4764   -8.9031 C   0  0  0  0  0  0
   -3.8628   54.4868  -11.8475 C   0  0  0  0  0  0
   -3.5718   53.8484  -10.4785 C   0  0  0  0  0  0
   -4.4103   52.5995  -10.1481 C   0  0  0  0  0  0
   -7.6583   56.8392  -11.9449 N   0  0  0  0  0  0
   -5.4077   56.2911   -6.5003 H   0  0  0  0  0  0
   -5.0835   56.9158  -14.4635 H   0  0  0  0  0  0
   -7.8989   57.0861  -12.9049 H   0  0  0  0  0  0
   -8.4151   57.1209  -11.3216 H   0  0  0  0  0  0
  1  2  2  0  0  0
  1  3  1  0  0  0
  1  4  1  0  0  0
  3 29  1  0  0  0
  4  5  2  0  0  0
  4 13  1  0  0  0
  5  6  1  0  0  0
  6  7  1  0  0  0
  6 28  1  0  0  0
  7  8  1  0  0  0
  7 12  1  0  0  0
  8  9  1  0  0  0
  8 30  1  0  0  0
  9 10  2  0  0  0
  9 11  1  0  0  0
 12 13  1  0  0  0
 12 14  1  0  0  0
 14 15  2  0  0  0
 14 16  1  0  0  0
 16 17  1  0  0  0
 16 25  1  0  0  0
 17 18  1  0  0  0
 18 19  1  0  0  0
 19 20  2  0  0  0
 19 21  1  0  0  0
 20 22  1  0  0  0
 21 23  2  0  0  0
 22 24  2  0  0  0
 23 24  1  0  0  0
 25 26  1  0  0  0
 26 27  1  0  0  0
 28 31  1  0  0  0
 28 32  1  0  0  0
M  END
>  <CHROM.0>
46.02272358,-7.39638122,-111.42681826,-25.11019514,122.30586017,-99.29123327
-170.00330642,-52.13491559

>  <CHROM.1>
-4.07093640,-126.66611011,169.37955665,39.65416581,129.01820177,121.09149591
-106.56829739,-69.66780727,64.93080912,-159.63181047,-3.47763345,56.39356750
-11.10143542,2.68535290,0.36878143,-1.35357481

>  <FORMUL>
      DPC    C20 H27 N3 O5

>  <HET>
 DPC  A 466      28

>  <HETNAM>
     DPC 5-ACETYLAMINO-4-AMINO-6-(PHENETHYL-PROPYL-CARBAMOYL)-5,
   2 DPC 6-DIHYDRO-4H-PYRAN-2-CARBOXYLIC ACID

>  <Name>
DPC.pdb

>  <RI>
9.87254e+06

>  <Rbt.Current_Directory>
/home/malgorzata/Desktop/rDOCK_IFD/test11

>  <Rbt.Executable>
rbdock ($Id: //depot/dev/client3/rdock/2013.1/src/exe/rbdock.cxx#4 $)

>  <Rbt.Library>
libRbt.so (2013.1, Build901 2013/11/27)

>  <Rbt.Parameter_File>
/home/malgorzata/Desktop/rDock_2013.1_src/data/scripts/soft_docking.prm

>  <Rbt.Receptor>
cavity.prm

>  <SCORE>
-55.0426

>  <SCORE.INTER>
-27.9668

>  <SCORE.INTER.CONST>
1

>  <SCORE.INTER.POLAR>
-4.39526

>  <SCORE.INTER.REPUL>
0

>  <SCORE.INTER.ROT>
9

>  <SCORE.INTER.VDW>
-27.4229

>  <SCORE.INTER.norm>
-0.998813

>  <SCORE.INTRA>
1.23234

>  <SCORE.INTRA.DIHEDRAL>
6.04968

>  <SCORE.INTRA.DIHEDRAL.0>
7.68839

>  <SCORE.INTRA.POLAR>
0

>  <SCORE.INTRA.POLAR.0>
0

>  <SCORE.INTRA.REPUL>
0

>  <SCORE.INTRA.REPUL.0>
0

>  <SCORE.INTRA.VDW>
0.0224032

>  <SCORE.INTRA.VDW.0>
-2.73227

>  <SCORE.INTRA.norm>
0.0440121

>  <SCORE.RESTR>
0.190345

>  <SCORE.RESTR.CAVITY>
0.190345

>  <SCORE.RESTR.norm>
0.00679805

>  <SCORE.SYSTEM>
-28.4985

>  <SCORE.SYSTEM.CONST>
0

>  <SCORE.SYSTEM.DIHEDRAL>
3.38921

>  <SCORE.SYSTEM.POLAR>
-7.11028

>  <SCORE.SYSTEM.VDW>
-6.01819

>  <SCORE.SYSTEM.norm>
-1.01781

>  <SCORE.heavy>
28

>  <SCORE.norm>
-1.96581

$$$$
DPC.pdb
  rDOCK(R)          3D
libRbt.so/2013.1/901 2013/11/27
 32 33  0  0  0  0  0  0  0  0999 V2000
   -1.7603   57.4874   -6.9343 C   0  0  0  0  0  0
   -1.3976   58.3605   -6.1545 O   0  0  0  0  0  0
   -1.0763   56.4835   -7.0818 O   0  0  0  0  0  0
   -3.0776   57.6138   -7.5833 C   0  0  0  0  0  0
   -4.2025   57.6288   -6.8605 C   0  0  0  0  0  0
   -5.5399   57.8143   -7.5245 C   0  0  0  0  0  0
   -5.4693   57.5755   -9.0305 C   0  0  0  0  0  0
   -6.6373   58.1731   -9.6671 N   0  0  0  0  0  0
   -7.2869   57.6472  -10.7169 C   0  0  0  0  0  0
   -6.9018   56.6219  -11.2525 O   0  0  0  0  0  0
   -8.5618   58.3793  -11.1742 C   0  0  0  0  0  0
   -4.2083   58.2374   -9.5812 C   0  0  0  0  0  0
   -3.0684   57.7774   -8.9062 O   0  0  0  0  0  0
   -3.9948   57.8090  -11.0155 C   0  0  0  0  0  0
   -3.9898   58.5585  -11.6313 O   0  0  0  0  0  0
   -3.6740   56.5526  -11.2931 N   0  0  0  0  0  0
   -3.3938   56.2470  -12.7137 C   0  0  0  0  0  0
   -1.9059   56.3691  -13.0569 C   0  0  0  0  0  0
   -1.1836   55.1380  -12.5467 C   0  0  0  0  0  0
   -1.5866   53.8494  -12.9630 C   0  0  0  0  0  0
   -0.1283   55.2567  -11.6309 C   0  0  0  0  0  0
   -0.9666   52.7004  -12.4413 C   0  0  0  0  0  0
    0.4899   54.1148  -11.1118 C   0  0  0  0  0  0
    0.0711   52.8352  -11.5009 C   0  0  0  0  0  0
   -3.6564   55.4743  -10.3072 C   0  0  0  0  0  0
   -4.7792   54.4484  -10.5377 C   0  0  0  0  0  0
   -4.8764   53.3362   -9.4768 C   0  0  0  0  0  0
   -6.4886   56.9114   -6.9295 N   0  0  0  0  0  0
   -0.2537   56.4080   -6.6396 H   0  0  0  0  0  0
   -6.9731   59.0229   -9.3006 H   0  0  0  0  0  0
   -6.8105   56.2452   -7.6317 H   0  0  0  0  0  0
   -7.2844   57.4407   -6.5730 H   0  0  0  0  0  0
  1  2  2  0  0  0
  1  3  1  0  0  0
  1  4  1  0  0  0
  3 29  1  0  0  0
  4  5  2  0  0  0
  4 13  1  0  0  0
  5  6  1  0  0  0
  6  7  1  0  0  0
  6 28  1  0  0  0
  7  8  1  0  0  0
  7 12  1  0  0  0
  8  9  1  0  0  0
  8 30  1  0  0  0
  9 10  2  0  0  0
  9 11  1  0  0  0
 12 13  1  0  0  0
 12 14  1  0  0  0
 14 15  2  0  0  0
 14 16  1  0  0  0
 16 17  1  0  0  0
 16 25  1  0  0  0
 17 18  1  0  0  0
 18 19  1  0  0  0
 19 20  2  0  0  0
 19 21  1  0  0  0
 20 22  1  0  0  0
 21 23  2  0  0  0
 22 24  2  0  0  0
 23 24  1  0  0  0
 25 26  1  0  0  0
 26 27  1  0  0  0
 28 31  1  0  0  0
 28 32  1  0  0  0
M  END
>  <CHROM.0>
-72.84105996,-135.38240608,145.13657524,118.93604086,108.92445543,175.87207979
-177.68918229,-99.64735974

>  <CHROM.1>
-3.72480535,-62.03073983,-116.30698584,-143.38743384,120.33605525,92.57123369
110.84640407,77.54461109,56.81986705,-176.05786547,-3.60174251,56.44331644
-10.00895443,-2.49092094,0.36403453,-2.01637304

>  <FORMUL>
      DPC    C20 H27 N3 O5

>  <HET>
 DPC  A 466      28

>  <HETNAM>
     DPC 5-ACETYLAMINO-4-AMINO-6-(PHENETHYL-PROPYL-CARBAMOYL)-5,
   2 DPC 6-DIHYDRO-4H-PYRAN-2-CARBOXYLIC ACID

>  <Name>
DPC.pdb

>  <RI>
9.87254e+06

>  <Rbt.Current_Directory>
/home/malgorzata/Desktop/rDOCK_IFD/test11

>  <Rbt.Executable>
rbdock ($Id: //depot/dev/client3/rdock/2013.1/src/exe/rbdock.cxx#4 $)

>  <Rbt.Library>
libRbt.so (2013.1, Build901 2013/11/27)

>  <Rbt.Parameter_File>
/home/malgorzata/Desktop/rDock_2013.1_src/data/scripts/soft_docking.prm

>  <Rbt.Receptor>
cavity.prm

>  <SCORE>
-52.1375

>  <SCORE.INTER>
-25.3904

>  <SCORE.INTER.CONST>
1

>  <SCORE.INTER.POLAR>
-4.05565

>  <SCORE.INTER.REPUL>
0.128094

>  <SCORE.INTER.ROT>
9

>  <SCORE.INTER.VDW>
-26.6417

>  <SCORE.INTER.norm>
-0.906801

>  <SCORE.INTRA>
0.0472464

>  <SCORE.INTRA.DIHEDRAL>
10.6174

>  <SCORE.INTRA.DIHEDRAL.0>
7.68839

>  <SCORE.INTRA.POLAR>
0

>  <SCORE.INTRA.POLAR.0>
0

>  <SCORE.INTRA.REPUL>
0

>  <SCORE.INTRA.REPUL.0>
0

>  <SCORE.INTRA.VDW>
-2.07624

>  <SCORE.INTRA.VDW.0>
-2.73227

>  <SCORE.INTRA.norm>
0.00168737

>  <SCORE.RESTR>
0.408794

>  <SCORE.RESTR.CAVITY>
0.408794

>  <SCORE.RESTR.norm>
0.0145998

>  <SCORE.SYSTEM>
-27.2031

>  <SCORE.SYSTEM.CONST>
0

>  <SCORE.SYSTEM.DIHEDRAL>
3.11563

>  <SCORE.SYSTEM.POLAR>
-6.33698

>  <SCORE.SYSTEM.VDW>
-7.21517

>  <SCORE.SYSTEM.norm>
-0.971539

>  <SCORE.heavy>
28

>  <SCORE.norm>
-1.86205

$$$$
DPC.pdb
  rDOCK(R)          3D
libRbt.so/2013.1/901 2013/11/27
 32 33  0  0  0  0  0  0  0  0999 V2000
   -2.9234   59.6124   -5.5712 C   0  0  0  0  0  0
   -2.1541   59.7417   -4.6260 O   0  0  0  0  0  0
   -3.6746   60.5302   -5.8720 O   0  0  0  0  0  0
   -2.8357   58.3969   -6.4003 C   0  0  0  0  0  0
   -1.7592   57.6053   -6.3498 C   0  0  0  0  0  0
   -1.7001   56.3366   -7.1566 C   0  0  0  0  0  0
   -2.7575   56.3082   -8.2570 C   0  0  0  0  0  0
   -2.9455   54.9340   -8.7075 N   0  0  0  0  0  0
   -2.1145   54.2819   -9.5349 C   0  0  0  0  0  0
   -1.1375   54.8306  -10.0152 O   0  0  0  0  0  0
   -2.4351   52.8003   -9.8049 C   0  0  0  0  0  0
   -4.0763   56.8329   -7.6941 C   0  0  0  0  0  0
   -3.9083   58.1092   -7.1377 O   0  0  0  0  0  0
   -5.0628   57.0406   -8.8211 C   0  0  0  0  0  0
   -5.9494   56.7113   -8.6055 O   0  0  0  0  0  0
   -4.7214   57.7651   -9.8781 N   0  0  0  0  0  0
   -5.7806   57.9914  -10.8864 C   0  0  0  0  0  0
   -5.6132   57.1015  -12.1220 C   0  0  0  0  0  0
   -6.4118   57.6962  -13.2649 C   0  0  0  0  0  0
   -5.9099   57.6541  -14.5850 C   0  0  0  0  0  0
   -7.6425   58.3245  -13.0259 C   0  0  0  0  0  0
   -6.6124   58.2639  -15.6393 C   0  0  0  0  0  0
   -8.3427   58.9307  -14.0737 C   0  0  0  0  0  0
   -7.8315   58.9159  -15.3785 C   0  0  0  0  0  0
   -3.3731   58.2720  -10.1232 C   0  0  0  0  0  0
   -3.3435   59.3644  -11.2059 C   0  0  0  0  0  0
   -1.9409   59.7336  -11.7239 C   0  0  0  0  0  0
   -0.3888   56.2085   -7.7343 N   0  0  0  0  0  0
   -4.2187   60.4605   -6.6317 H   0  0  0  0  0  0
   -3.7386   54.4504   -8.3814 H   0  0  0  0  0  0
   -0.3952   55.4629   -8.4303 H   0  0  0  0  0  0
    0.2849   55.9842   -7.0020 H   0  0  0  0  0  0
  1  2  2  0  0  0
  1  3  1  0  0  0
  1  4  1  0  0  0
  3 29  1  0  0  0
  4  5  2  0  0  0
  4 13  1  0  0  0
  5  6  1  0  0  0
  6  7  1  0  0  0
  6 28  1  0  0  0
  7  8  1  0  0  0
  7 12  1  0  0  0
  8  9  1  0  0  0
  8 30  1  0  0  0
  9 10  2  0  0  0
  9 11  1  0  0  0
 12 13  1  0  0  0
 12 14  1  0  0  0
 14 15  2  0  0  0
 14 16  1  0  0  0
 16 17  1  0  0  0
 16 25  1  0  0  0
 17 18  1  0  0  0
 18 19  1  0  0  0
 19 20  2  0  0  0
 19 21  1  0  0  0
 20 22  1  0  0  0
 21 23  2  0  0  0
 22 24  2  0  0  0
 23 24  1  0  0  0
 25 26  1  0  0  0
 26 27  1  0  0  0
 28 31  1  0  0  0
 28 32  1  0  0  0
M  END
>  <CHROM.0>
-55.93265982,-88.51440642,-169.86787645,65.59395814,99.18124601,159.99425677
-129.72575944,50.95707480

>  <CHROM.1>
175.45951320,-16.11096206,-168.46803978,-77.89439273,136.01281989,-102.86133714
-165.14716154,-161.11406701,142.35213505,-167.77821282,-3.97855082,57.50535176
-9.70241173,0.59565411,-0.88287766,0.81636882

>  <FORMUL>
      DPC    C20 H27 N3 O5

>  <HET>
 DPC  A 466      28

>  <HETNAM>
     DPC 5-ACETYLAMINO-4-AMINO-6-(PHENETHYL-PROPYL-CARBAMOYL)-5,
   2 DPC 6-DIHYDRO-4H-PYRAN-2-CARBOXYLIC ACID

>  <Name>
DPC.pdb

>  <RI>
9.87254e+06

>  <Rbt.Current_Directory>
/home/malgorzata/Desktop/rDOCK_IFD/test11

>  <Rbt.Executable>
rbdock ($Id: //depot/dev/client3/rdock/2013.1/src/exe/rbdock.cxx#4 $)

>  <Rbt.Library>
libRbt.so (2013.1, Build901 2013/11/27)

>  <Rbt.Parameter_File>
/home/malgorzata/Desktop/rDock_2013.1_src/data/scripts/soft_docking.prm

>  <Rbt.Receptor>
cavity.prm

>  <SCORE>
-54.8293

>  <SCORE.INTER>
-32.1274

>  <SCORE.INTER.CONST>
1

>  <SCORE.INTER.POLAR>
-5.38987

>  <SCORE.INTER.REPUL>
0.0335779

>  <SCORE.INTER.ROT>
9

>  <SCORE.INTER.VDW>
-28.3698

>  <SCORE.INTER.norm>
-1.14741

>  <SCORE.INTRA>
5.24338

>  <SCORE.INTRA.DIHEDRAL>
0.948063

>  <SCORE.INTRA.DIHEDRAL.0>
7.68839

>  <SCORE.INTRA.POLAR>
0

>  <SCORE.INTRA.POLAR.0>
0

>  <SCORE.INTRA.REPUL>
0

>  <SCORE.INTRA.REPUL.0>
0

>  <SCORE.INTRA.VDW>
5.05377

>  <SCORE.INTRA.VDW.0>
-2.73227

>  <SCORE.INTRA.norm>
0.187264

>  <SCORE.RESTR>
0.267198

>  <SCORE.RESTR.CAVITY>
0.267198

>  <SCORE.RESTR.norm>
0.00954279

>  <SCORE.SYSTEM>
-28.2124

>  <SCORE.SYSTEM.CONST>
0

>  <SCORE.SYSTEM.DIHEDRAL>
5.20388

>  <SCORE.SYSTEM.POLAR>
-6.68646

>  <SCORE.SYSTEM.VDW>
-8.0804

>  <SCORE.SYSTEM.norm>
-1.00759

>  <SCORE.heavy>
28

>  <SCORE.norm>
-1.95819

$$$$
DPC.pdb
  rDOCK(R)          3D
libRbt.so/2013.1/901 2013/11/27
 32 33  0  0  0  0  0  0  0  0999 V2000
    3.4322   56.6717   -7.6440 C   0  0  0  0  0  0
    4.5966   56.2976   -7.7224 O   0  0  0  0  0  0
    3.1511   57.6386   -6.9487 O   0  0  0  0  0  0
    2.4160   56.0207   -8.4901 C   0  0  0  0  0  0
    2.6438   54.8244   -9.0425 C   0  0  0  0  0  0
    1.5811   54.1403   -9.8590 C   0  0  0  0  0  0
    0.4745   55.1035  -10.2805 C   0  0  0  0  0  0
   -0.7038   54.3393  -10.6733 N   0  0  0  0  0  0
   -1.4454   54.5874  -11.7638 C   0  0  0  0  0  0
   -1.1986   55.5285  -12.4983 O   0  0  0  0  0  0
   -2.5876   53.5978  -12.0586 C   0  0  0  0  0  0
    0.1159   55.9988   -9.0967 C   0  0  0  0  0  0
    1.2525   56.6601   -8.6095 O   0  0  0  0  0  0
   -0.7973   57.1114   -9.5598 C   0  0  0  0  0  0
   -0.7024   57.3015  -10.5063 O   0  0  0  0  0  0
   -1.7243   57.5937   -8.7433 N   0  0  0  0  0  0
   -2.6313   58.6149   -9.3129 C   0  0  0  0  0  0
   -2.2704   60.0346   -8.8645 C   0  0  0  0  0  0
   -3.5358   60.8674   -8.8120 C   0  0  0  0  0  0
   -3.9960   61.3909   -7.5830 C   0  0  0  0  0  0
   -4.2849   61.1033   -9.9737 C   0  0  0  0  0  0
   -5.2048   62.1058   -7.5155 C   0  0  0  0  0  0
   -5.4869   61.8150   -9.9083 C   0  0  0  0  0  0
   -5.9599   62.3090   -8.6850 C   0  0  0  0  0  0
   -1.8426   57.2313   -7.3327 C   0  0  0  0  0  0
   -0.7116   57.8256   -6.4761 C   0  0  0  0  0  0
   -1.1617   58.8532   -5.4208 C   0  0  0  0  0  0
    2.1890   53.5533  -11.0232 N   0  0  0  0  0  0
    2.3256   58.0686   -7.0561 H   0  0  0  0  0  0
   -0.9744   53.5880  -10.0975 H   0  0  0  0  0  0
    1.5576   53.6448  -11.8191 H   0  0  0  0  0  0
    2.3748   52.5657  -10.8484 H   0  0  0  0  0  0
  1  2  2  0  0  0
  1  3  1  0  0  0
  1  4  1  0  0  0
  3 29  1  0  0  0
  4  5  2  0  0  0
  4 13  1  0  0  0
  5  6  1  0  0  0
  6  7  1  0  0  0
  6 28  1  0  0  0
  7  8  1  0  0  0
  7 12  1  0  0  0
  8  9  1  0  0  0
  8 30  1  0  0  0
  9 10  2  0  0  0
  9 11  1  0  0  0
 12 13  1  0  0  0
 12 14  1  0  0  0
 14 15  2  0  0  0
 14 16  1  0  0  0
 16 17  1  0  0  0
 16 25  1  0  0  0
 17 18  1  0  0  0
 18 19  1  0  0  0
 19 20  2  0  0  0
 19 21  1  0  0  0
 20 22  1  0  0  0
 21 23  2  0  0  0
 22 24  2  0  0  0
 23 24  1  0  0  0
 25 26  1  0  0  0
 26 27  1  0  0  0
 28 31  1  0  0  0
 28 32  1  0  0  0
M  END
>  <CHROM.0>
56.98951482,49.39913444,13.67104852,60.07184138,6.26459854,152.34241108,-159.61593264
44.16432344

>  <CHROM.1>
163.73021716,18.81923499,-142.92738836,-135.53931575,-24.17209975,-102.78473934
71.33403872,-149.56847776,116.00477476,115.28486584,-0.78688563,57.39240035
-9.09245696,-0.62724638,-0.49128365,0.73579149

>  <FORMUL>
      DPC    C20 H27 N3 O5

>  <HET>
 DPC  A 466      28

>  <HETNAM>
     DPC 5-ACETYLAMINO-4-AMINO-6-(PHENETHYL-PROPYL-CARBAMOYL)-5,
   2 DPC 6-DIHYDRO-4H-PYRAN-2-CARBOXYLIC ACID

>  <Name>
DPC.pdb

>  <RI>
9.87254e+06

>  <Rbt.Current_Directory>
/home/malgorzata/Desktop/rDOCK_IFD/test11

>  <Rbt.Executable>
rbdock ($Id: //depot/dev/client3/rdock/2013.1/src/exe/rbdock.cxx#4 $)

>  <Rbt.Library>
libRbt.so (2013.1, Build901 2013/11/27)

>  <Rbt.Parameter_File>
/home/malgorzata/Desktop/rDock_2013.1_src/data/scripts/soft_docking.prm

>  <Rbt.Receptor>
cavity.prm

>  <SCORE>
-56.0451

>  <SCORE.INTER>
-28.2546

>  <SCORE.INTER.CONST>
1

>  <SCORE.INTER.POLAR>
-3.9059

>  <SCORE.INTER.REPUL>
0

>  <SCORE.INTER.ROT>
9

>  <SCORE.INTER.VDW>
-29.3745

>  <SCORE.INTER.norm>
-1.00909

>  <SCORE.INTRA>
2.86951

>  <SCORE.INTRA.DIHEDRAL>
9.90132

>  <SCORE.INTRA.DIHEDRAL.0>
7.68839

>  <SCORE.INTRA.POLAR>
-0.00813616

>  <SCORE.INTRA.POLAR.0>
0

>  <SCORE.INTRA.REPUL>
0

>  <SCORE.INTRA.REPUL.0>
0

>  <SCORE.INTRA.VDW>
0.91691

>  <SCORE.INTRA.VDW.0>
-2.73227

>  <SCORE.INTRA.norm>
0.102483

>  <SCORE.RESTR>
0.0649902

>  <SCORE.RESTR.CAVITY>
0.0649902

>  <SCORE.RESTR.norm>
0.00232108

>  <SCORE.SYSTEM>
-30.725

>  <SCORE.SYSTEM.CONST>
0

>  <SCORE.SYSTEM.DIHEDRAL>
2.92016

>  <SCORE.SYSTEM.POLAR>
-7.5026

>  <SCORE.SYSTEM.VDW>
-6.67627

>  <SCORE.SYSTEM.norm>
-1.09732

>  <SCORE.heavy>
28

>  <SCORE.norm>
-2.00161

$$$$
DPC.pdb
  rDOCK(R)          3D
libRbt.so/2013.1/901 2013/11/27
 32 33  0  0  0  0  0  0  0  0999 V2000
    1.3455   56.0528   -7.2750 C   0  0  0  0  0  0
    2.2114   56.4336   -6.4959 O   0  0  0  0  0  0
    1.4778   54.9825   -7.8532 O   0  0  0  0  0  0
    0.1048   56.8385   -7.4011 C   0  0  0  0  0  0
   -0.1751   57.8256   -6.5435 C   0  0  0  0  0  0
   -1.4157   58.6602   -6.7114 C   0  0  0  0  0  0
   -2.4234   58.0052   -7.6524 C   0  0  0  0  0  0
   -3.3741   59.0102   -8.1136 N   0  0  0  0  0  0
   -4.6898   58.8000   -8.2722 C   0  0  0  0  0  0
   -5.1853   57.7035   -8.0760 O   0  0  0  0  0  0
   -5.5390   60.0220   -8.6674 C   0  0  0  0  0  0
   -1.6804   57.4321   -8.8570 C   0  0  0  0  0  0
   -0.6704   56.5500   -8.4464 O   0  0  0  0  0  0
   -2.6209   56.5739   -9.6726 C   0  0  0  0  0  0
   -3.0988   55.9265   -9.1308 O   0  0  0  0  0  0
   -2.8461   56.8611  -10.9475 N   0  0  0  0  0  0
   -3.8507   56.0237  -11.6397 C   0  0  0  0  0  0
   -3.3716   55.5511  -13.0159 C   0  0  0  0  0  0
   -2.3755   54.4243  -12.8266 C   0  0  0  0  0  0
   -2.7975   53.0779  -12.8999 C   0  0  0  0  0  0
   -1.0298   54.6999  -12.5443 C   0  0  0  0  0  0
   -1.8936   52.0286  -12.6574 C   0  0  0  0  0  0
   -0.1294   53.6573  -12.3038 C   0  0  0  0  0  0
   -0.5533   52.3221  -12.3464 C   0  0  0  0  0  0
   -2.1202   57.8836  -11.6976 C   0  0  0  0  0  0
   -2.7790   59.2696  -11.5914 C   0  0  0  0  0  0
   -3.9446   59.5159  -12.5675 C   0  0  0  0  0  0
   -2.0165   58.8726   -5.4216 N   0  0  0  0  0  0
    0.7364   54.5703   -8.2512 H   0  0  0  0  0  0
   -3.0257   59.9068   -8.3235 H   0  0  0  0  0  0
   -2.3520   57.9830   -5.0521 H   0  0  0  0  0  0
   -2.7998   59.5195   -5.5138 H   0  0  0  0  0  0
  1  2  2  0  0  0
  1  3  1  0  0  0
  1  4  1  0  0  0
  3 29  1  0  0  0
  4  5  2  0  0  0
  4 13  1  0  0  0
  5  6  1  0  0  0
  6  7  1  0  0  0
  6 28  1  0  0  0
  7  8  1  0  0  0
  7 12  1  0  0  0
  8  9  1  0  0  0
  8 30  1  0  0  0
  9 10  2  0  0  0
  9 11  1  0  0  0
 12 13  1  0  0  0
 12 14  1  0  0  0
 14 15  2  0  0  0
 14 16  1  0  0  0
 16 17  1  0  0  0
 16 25  1  0  0  0
 17 18  1  0  0  0
 18 19  1  0  0  0
 19 20  2  0  0  0
 19 21  1  0  0  0
 20 22  1  0  0  0
 21 23  2  0  0  0
 22 24  2  0  0  0
 23 24  1  0  0  0
 25 26  1  0  0  0
 26 27  1  0  0  0
 28 31  1  0  0  0
 28 32  1  0  0  0
M  END
>  <CHROM.0>
-51.36499179,-107.17197891,151.69396168,153.70668023,-96.34996445,-120.03607657
-136.01754856,67.80440654

>  <CHROM.1>
162.66725769,-10.39697304,-66.04968864,-140.58380903,-50.01552920,-133.89220427
-89.04102778,76.29122141,95.90013407,-83.06719471,-1.99292972,56.66271079
-9.63506530,-1.59161747,0.63477858,-2.23514031

>  <FORMUL>
      DPC    C20 H27 N3 O5

>  <HET>
 DPC  A 466      28

>  <HETNAM>
     DPC 5-ACETYLAMINO-4-AMINO-6-(PHENETHYL-PROPYL-CARBAMOYL)-5,
   2 DPC 6-DIHYDRO-4H-PYRAN-2-CARBOXYLIC ACID

>  <Name>
DPC.pdb

>  <RI>
9.87254e+06

>  <Rbt.Current_Directory>
/home/malgorzata/Desktop/rDOCK_IFD/test11

>  <Rbt.Executable>
rbdock ($Id: //depot/dev/client3/rdock/2013.1/src/exe/rbdock.cxx#4 $)

>  <Rbt.Library>
libRbt.so (2013.1, Build901 2013/11/27)

>  <Rbt.Parameter_File>
/home/malgorzata/Desktop/rDock_2013.1_src/data/scripts/soft_docking.prm

>  <Rbt.Receptor>
cavity.prm

>  <SCORE>
-48.2128

>  <SCORE.INTER>
-26.6853

>  <SCORE.INTER.CONST>
1

>  <SCORE.INTER.POLAR>
-5.01015

>  <SCORE.INTER.REPUL>
1.13505

>  <SCORE.INTER.ROT>
9

>  <SCORE.INTER.VDW>
-29.726

>  <SCORE.INTER.norm>
-0.953045

>  <SCORE.INTRA>
-0.15246

>  <SCORE.INTRA.DIHEDRAL>
4.29542

>  <SCORE.INTRA.DIHEDRAL.0>
7.68839

>  <SCORE.INTRA.POLAR>
0

>  <SCORE.INTRA.POLAR.0>
0

>  <SCORE.INTRA.REPUL>
0

>  <SCORE.INTRA.REPUL.0>
0

>  <SCORE.INTRA.VDW>
-1.01154

>  <SCORE.INTRA.VDW.0>
-2.73227

>  <SCORE.INTRA.norm>
-0.00544502

>  <SCORE.RESTR>
0.264917

>  <SCORE.RESTR.CAVITY>
0.264917

>  <SCORE.RESTR.norm>
0.00946133

>  <SCORE.SYSTEM>
-21.64

>  <SCORE.SYSTEM.CONST>
0

>  <SCORE.SYSTEM.DIHEDRAL>
4.91612

>  <SCORE.SYSTEM.POLAR>
-6.29673

>  <SCORE.SYSTEM.REPUL>
0.613361

>  <SCORE.SYSTEM.VDW>
-5.75596

>  <SCORE.SYSTEM.norm>
-0.772856

>  <SCORE.heavy>
28

>  <SCORE.norm>
-1.72188

$$$$
DPC.pdb
  rDOCK(R)          3D
libRbt.so/2013.1/901 2013/11/27
 32 33  0  0  0  0  0  0  0  0999 V2000
   -3.0806   60.2244   -5.7891 C   0  0  0  0  0  0
   -2.2828   61.1280   -5.5683 O   0  0  0  0  0  0
   -4.2811   60.4612   -5.7876 O   0  0  0  0  0  0
   -2.5664   58.8979   -6.1743 C   0  0  0  0  0  0
   -1.8513   58.1614   -5.3174 C   0  0  0  0  0  0
   -1.3771   56.7849   -5.6974 C   0  0  0  0  0  0
   -1.4544   56.5483   -7.2034 C   0  0  0  0  0  0
   -1.4076   55.1149   -7.4677 N   0  0  0  0  0  0
   -0.3863   54.4822   -8.0652 C   0  0  0  0  0  0
    0.5835   55.0936   -8.4800 O   0  0  0  0  0  0
   -0.4855   52.9483   -8.1555 C   0  0  0  0  0  0
   -2.7741   57.1090   -7.7286 C   0  0  0  0  0  0
   -2.9128   58.4616   -7.3853 O   0  0  0  0  0  0
   -2.7622   57.1037   -9.2406 C   0  0  0  0  0  0
   -1.9000   57.3552   -9.6072 O   0  0  0  0  0  0
   -3.7982   56.6191   -9.9117 N   0  0  0  0  0  0
   -3.6591   56.5694  -11.3841 C   0  0  0  0  0  0
   -4.0654   55.2115  -11.9655 C   0  0  0  0  0  0
   -2.8313   54.3385  -12.0778 C   0  0  0  0  0  0
   -2.8700   52.9896  -11.6594 C   0  0  0  0  0  0
   -1.6265   54.8636  -12.5669 C   0  0  0  0  0  0
   -1.7116   52.1936  -11.6963 C   0  0  0  0  0  0
   -0.4738   54.0728  -12.6051 C   0  0  0  0  0  0
   -0.5034   52.7435  -12.1622 C   0  0  0  0  0  0
   -5.0583   56.2138   -9.2929 C   0  0  0  0  0  0
   -5.8769   57.4134   -8.7857 C   0  0  0  0  0  0
   -7.4020   57.2830   -8.9557 C   0  0  0  0  0  0
   -0.0228   56.6131   -5.2437 N   0  0  0  0  0  0
   -4.7317   60.6028   -6.5969 H   0  0  0  0  0  0
   -2.1804   54.5729   -7.1878 H   0  0  0  0  0  0
    0.4812   56.0135   -5.8971 H   0  0  0  0  0  0
   -0.0261   56.1816   -4.3194 H   0  0  0  0  0  0
  1  2  2  0  0  0
  1  3  1  0  0  0
  1  4  1  0  0  0
  3 29  1  0  0  0
  4  5  2  0  0  0
  4 13  1  0  0  0
  5  6  1  0  0  0
  6  7  1  0  0  0
  6 28  1  0  0  0
  7  8  1  0  0  0
  7 12  1  0  0  0
  8  9  1  0  0  0
  8 30  1  0  0  0
  9 10  2  0  0  0
  9 11  1  0  0  0
 12 13  1  0  0  0
 12 14  1  0  0  0
 14 15  2  0  0  0
 14 16  1  0  0  0
 16 17  1  0  0  0
 16 25  1  0  0  0
 17 18  1  0  0  0
 18 19  1  0  0  0
 19 20  2  0  0  0
 19 21  1  0  0  0
 20 22  1  0  0  0
 21 23  2  0  0  0
 22 24  2  0  0  0
 23 24  1  0  0  0
 25 26  1  0  0  0
 26 27  1  0  0  0
 28 31  1  0  0  0
 28 32  1  0  0  0
M  END
>  <CHROM.0>
22.09206700,-160.51618452,-44.58374398,-160.73563587,116.51100925,-160.03596812
-163.54541442,41.87465192

>  <CHROM.1>
98.36474074,65.89906393,-146.88656774,-111.64658427,-39.41766647,131.95173671
70.89203606,-93.02808156,135.05502608,143.03445253,-2.47278093,56.38754965
-8.71277703,1.74560817,-0.52963301,0.87885244

>  <FORMUL>
      DPC    C20 H27 N3 O5

>  <HET>
 DPC  A 466      28

>  <HETNAM>
     DPC 5-ACETYLAMINO-4-AMINO-6-(PHENETHYL-PROPYL-CARBAMOYL)-5,
   2 DPC 6-DIHYDRO-4H-PYRAN-2-CARBOXYLIC ACID

>  <Name>
DPC.pdb

>  <RI>
9.87254e+06

>  <Rbt.Current_Directory>
/home/malgorzata/Desktop/rDOCK_IFD/test11

>  <Rbt.Executable>
rbdock ($Id: //depot/dev/client3/rdock/2013.1/src/exe/rbdock.cxx#4 $)

>  <Rbt.Library>
libRbt.so (2013.1, Build901 2013/11/27)

>  <Rbt.Parameter_File>
/home/malgorzata/Desktop/rDock_2013.1_src/data/scripts/soft_docking.prm

>  <Rbt.Receptor>
cavity.prm

>  <SCORE>
-45.6958

>  <SCORE.INTER>
-25.9037

>  <SCORE.INTER.CONST>
1

>  <SCORE.INTER.POLAR>
-3.74514

>  <SCORE.INTER.REPUL>
0

>  <SCORE.INTER.ROT>
9

>  <SCORE.INTER.VDW>
-27.5702

>  <SCORE.INTER.norm>
-0.925133

>  <SCORE.INTRA>
7.7565

>  <SCORE.INTRA.DIHEDRAL>
37.964

>  <SCORE.INTRA.DIHEDRAL.0>
7.68839

>  <SCORE.INTRA.POLAR>
0

>  <SCORE.INTRA.POLAR.0>
0

>  <SCORE.INTRA.REPUL>
0

>  <SCORE.INTRA.REPUL.0>
0

>  <SCORE.INTRA.VDW>
0.163691

>  <SCORE.INTRA.VDW.0>
-2.73227

>  <SCORE.INTRA.norm>
0.277018

>  <SCORE.RESTR>
0.0946609

>  <SCORE.RESTR.CAVITY>
0.0946609

>  <SCORE.RESTR.norm>
0.00338075

>  <SCORE.SYSTEM>
-27.6432

>  <SCORE.SYSTEM.CONST>
0

>  <SCORE.SYSTEM.DIHEDRAL>
7.74062

>  <SCORE.SYSTEM.POLAR>
-7.02408

>  <SCORE.SYSTEM.VDW>
-7.63164

>  <SCORE.SYSTEM.norm>
-0.987257

>  <SCORE.heavy>
28

>  <SCORE.norm>
-1.63199

$$$$
DPC.pdb
  rDOCK(R)          3D
libRbt.so/2013.1/901 2013/11/27
 32 33  0  0  0  0  0  0  0  0999 V2000
    3.8776   57.3196   -6.8885 C   0  0  0  0  0  0
    5.0348   56.9396   -7.0244 O   0  0  0  0  0  0
    3.6433   58.3308   -6.2406 O   0  0  0  0  0  0
    2.8062   56.6152   -7.6153 C   0  0  0  0  0  0
    3.0639   55.5060   -8.3163 C   0  0  0  0  0  0
    1.9560   54.7607   -9.0097 C   0  0  0  0  0  0
    0.6920   55.6064   -9.1413 C   0  0  0  0  0  0
   -0.4450   54.7330   -9.4081 N   0  0  0  0  0  0
   -1.1963   54.7765  -10.5190 C   0  0  0  0  0  0
   -0.9966   55.6080  -11.3879 O   0  0  0  0  0  0
   -2.2859   53.6971  -10.6553 C   0  0  0  0  0  0
    0.4519   56.3504   -7.8297 C   0  0  0  0  0  0
    1.5763   57.1093   -7.4739 O   0  0  0  0  0  0
   -0.6469   57.3718   -8.0192 C   0  0  0  0  0  0
   -0.7668   57.6219   -8.9488 O   0  0  0  0  0  0
   -1.4333   57.6984   -7.0026 N   0  0  0  0  0  0
   -2.5381   58.6354   -7.3042 C   0  0  0  0  0  0
   -3.8988   58.1056   -6.8410 C   0  0  0  0  0  0
   -4.9352   58.4276   -7.8993 C   0  0  0  0  0  0
   -4.9126   59.6734   -8.5656 C   0  0  0  0  0  0
   -5.9490   57.5098   -8.2094 C   0  0  0  0  0  0
   -5.9107   60.0061   -9.4983 C   0  0  0  0  0  0
   -6.9418   57.8390   -9.1376 C   0  0  0  0  0  0
   -6.9379   59.0861   -9.7770 C   0  0  0  0  0  0
   -1.2239   57.2500   -5.6277 C   0  0  0  0  0  0
   -0.6983   58.3726   -4.7168 C   0  0  0  0  0  0
    0.6851   58.9311   -5.0993 C   0  0  0  0  0  0
    2.4090   54.3515  -10.3123 N   0  0  0  0  0  0
    4.2868   59.0094   -6.1822 H   0  0  0  0  0  0
   -0.6778   54.0639   -8.7245 H   0  0  0  0  0  0
    1.8686   53.5438  -10.6221 H   0  0  0  0  0  0
    3.3970   54.1020  -10.2658 H   0  0  0  0  0  0
  1  2  2  0  0  0
  1  3  1  0  0  0
  1  4  1  0  0  0
  3 29  1  0  0  0
  4  5  2  0  0  0
  4 13  1  0  0  0
  5  6  1  0  0  0
  6  7  1  0  0  0
  6 28  1  0  0  0
  7  8  1  0  0  0
  7 12  1  0  0  0
  8  9  1  0  0  0
  8 30  1  0  0  0
  9 10  2  0  0  0
  9 11  1  0  0  0
 12 13  1  0  0  0
 12 14  1  0  0  0
 14 15  2  0  0  0
 14 16  1  0  0  0
 16 17  1  0  0  0
 16 25  1  0  0  0
 17 18  1  0  0  0
 18 19  1  0  0  0
 19 20  2  0  0  0
 19 21  1  0  0  0
 20 22  1  0  0  0
 21 23  2  0  0  0
 22 24  2  0  0  0
 23 24  1  0  0  0
 25 26  1  0  0  0
 26 27  1  0  0  0
 28 31  1  0  0  0
 28 32  1  0  0  0
M  END
>  <CHROM.0>
48.22115555,-40.08780390,155.88389518,-73.84276906,8.02078964,-59.85662891
-117.23513022,60.02550761

>  <CHROM.1>
27.86960905,6.05222034,155.91118611,-118.08044942,-21.88577015,127.47611125
106.45260640,-139.38768211,-40.07279994,-63.10328059,-0.79349992,57.05521956
-8.15120819,-0.06382713,-0.25129873,0.83614607

>  <FORMUL>
      DPC    C20 H27 N3 O5

>  <HET>
 DPC  A 466      28

>  <HETNAM>
     DPC 5-ACETYLAMINO-4-AMINO-6-(PHENETHYL-PROPYL-CARBAMOYL)-5,
   2 DPC 6-DIHYDRO-4H-PYRAN-2-CARBOXYLIC ACID

>  <Name>
DPC.pdb

>  <RI>
9.87254e+06

>  <Rbt.Current_Directory>
/home/malgorzata/Desktop/rDOCK_IFD/test11

>  <Rbt.Executable>
rbdock ($Id: //depot/dev/client3/rdock/2013.1/src/exe/rbdock.cxx#4 $)

>  <Rbt.Library>
libRbt.so (2013.1, Build901 2013/11/27)

>  <Rbt.Parameter_File>
/home/malgorzata/Desktop/rDock_2013.1_src/data/scripts/soft_docking.prm

>  <Rbt.Receptor>
cavity.prm

>  <SCORE>
-43.5495

>  <SCORE.INTER>
-20.9498

>  <SCORE.INTER.CONST>
1

>  <SCORE.INTER.POLAR>
-3.74319

>  <SCORE.INTER.REPUL>
0.742648

>  <SCORE.INTER.ROT>
9

>  <SCORE.INTER.VDW>
-26.3362

>  <SCORE.INTER.norm>
-0.748207

>  <SCORE.INTRA>
4.31453

>  <SCORE.INTRA.DIHEDRAL>
9.1745

>  <SCORE.INTRA.DIHEDRAL.0>
7.68839

>  <SCORE.INTRA.POLAR>
0

>  <SCORE.INTRA.POLAR.0>
0

>  <SCORE.INTRA.REPUL>
0

>  <SCORE.INTRA.REPUL.0>
0

>  <SCORE.INTRA.VDW>
2.47963

>  <SCORE.INTRA.VDW.0>
-2.73227

>  <SCORE.INTRA.norm>
0.15409

>  <SCORE.RESTR>
0.209532

>  <SCORE.RESTR.CAVITY>
0.209532

>  <SCORE.RESTR.norm>
0.00748328

>  <SCORE.SYSTEM>
-27.1237

>  <SCORE.SYSTEM.CONST>
0

>  <SCORE.SYSTEM.DIHEDRAL>
6.65049

>  <SCORE.SYSTEM.POLAR>
-7.0853

>  <SCORE.SYSTEM.VDW>
-6.35894

>  <SCORE.SYSTEM.norm>
-0.968704

>  <SCORE.heavy>
28

>  <SCORE.norm>
-1.55534

$$$$
