SIA.pdb
 OpenBabel11112013573D

 40 40  0  0  1  0  0  0  0  0999 V2000
   -2.1960   58.8720   -5.9810 C   0  0  0  0  0  0  0  0  0  0  0  0
   -1.8700   58.0210   -7.2110 C   0  0  2  0  0  0  0  0  0  0  0  0
   -0.8440   56.8990   -7.3060 C   0  0  0  0  0  0  0  0  0  0  0  0
   -1.1570   55.9040   -8.4130 C   0  0  1  0  0  0  0  0  0  0  0  0
   -2.0150   56.5160   -9.5170 C   0  0  2  0  0  0  0  0  0  0  0  0
   -3.3520   56.9560   -8.9120 C   0  0  2  0  0  0  0  0  0  0  0  0
   -4.2240   57.6980   -9.9420 C   0  0  1  0  0  0  0  0  0  0  0  0
   -5.5710   58.1310   -9.3600 C   0  0  1  0  0  0  0  0  0  0  0  0
   -6.6010   58.6740  -10.3810 C   0  0  0  0  0  0  0  0  0  0  0  0
   -1.8970   55.3740  -11.7590 C   0  0  0  0  0  0  0  0  0  0  0  0
   -2.2000   54.0570  -12.4540 C   0  0  0  0  0  0  0  0  0  0  0  0
   -2.2020   55.4440  -10.4780 N   0  0  0  0  0  0  0  0  0  0  0  0
   -1.2890   58.8150   -5.1300 O   0  0  0  0  0  0  0  0  0  0  0  0
   -3.2100   59.5040   -5.6310 O   0  0  0  0  0  0  0  0  0  0  0  0
   -1.7680   59.2140   -7.9920 O   0  0  0  0  0  0  0  0  0  0  0  0
    0.0720   55.5230   -8.9860 O   0  0  0  0  0  0  0  0  0  0  0  0
   -3.1490   57.9080   -7.8470 O   0  0  0  0  0  0  0  0  0  0  0  0
   -3.5940   58.8830  -10.4020 O   0  0  0  0  0  0  0  0  0  0  0  0
   -6.1190   56.9460   -8.8280 O   0  0  0  0  0  0  0  0  0  0  0  0
   -6.9310   57.6870  -11.3460 O   0  0  0  0  0  0  0  0  0  0  0  0
   -1.4230   56.3570  -12.3310 O   0  0  0  0  0  0  0  0  0  0  0  0
   -0.7020   56.4840   -6.3000 H   0  0  0  0  0  0  0  0  0  0  0  0
    0.1200   57.4080   -7.1820 H   0  0  0  0  0  0  0  0  0  0  0  0
   -1.6510   55.0600   -7.8970 H   0  0  0  0  0  0  0  0  0  0  0  0
   -1.5060   57.3750   -9.9790 H   0  0  0  0  0  0  0  0  0  0  0  0
   -3.8500   56.0750   -8.4920 H   0  0  0  0  0  0  0  0  0  0  0  0
   -4.3390   57.1760  -10.9070 H   0  0  0  0  0  0  0  0  0  0  0  0
   -5.4730   58.8710   -8.5530 H   0  0  0  0  0  0  0  0  0  0  0  0
   -6.0540   59.4590  -10.9250 H   0  0  0  0  0  0  0  0  0  0  0  0
   -7.5870   59.0290  -10.0550 H   0  0  0  0  0  0  0  0  0  0  0  0
   -3.2150   53.7280  -12.2070 H   0  0  0  0  0  0  0  0  0  0  0  0
   -1.5500   53.2790  -12.0330 H   0  0  0  0  0  0  0  0  0  0  0  0
   -2.0050   54.0410  -13.5310 H   0  0  0  0  0  0  0  0  0  0  0  0
   -2.5660   54.6580  -10.0030 H   0  0  0  0  0  0  0  0  0  0  0  0
   -0.9050   59.1130   -8.4380 H   0  0  0  0  0  0  0  0  0  0  0  0
    0.4270   54.8010   -8.4300 H   0  0  0  0  0  0  0  0  0  0  0  0
   -3.1090   58.8840   -9.5480 H   0  0  0  0  0  0  0  0  0  0  0  0
   -7.0710   57.0510   -8.9620 H   0  0  0  0  0  0  0  0  0  0  0  0
   -6.7830   56.8850  -10.8080 H   0  0  0  0  0  0  0  0  0  0  0  0
   -3.9347   59.5898   -6.2188 H   0  0  0  0  0  0  0  0  0  0  0  0
  1 13  2  0  0  0  0
  1 14  1  0  0  0  0
  2  1  1  1  0  0  0
  2  3  1  0  0  0  0
  2 15  1  0  0  0  0
  2 17  1  0  0  0  0
  3  4  1  0  0  0  0
  3 22  1  0  0  0  0
  3 23  1  0  0  0  0
  4  5  1  0  0  0  0
  4 16  1  0  0  0  0
  4 24  1  1  0  0  0
  5  6  1  0  0  0  0
  5 12  1  0  0  0  0
  5 25  1  6  0  0  0
  6  7  1  0  0  0  0
  6 17  1  0  0  0  0
  6 26  1  1  0  0  0
  7  8  1  0  0  0  0
  7 18  1  0  0  0  0
  7 27  1  6  0  0  0
  8  9  1  0  0  0  0
  8 19  1  0  0  0  0
  8 28  1  1  0  0  0
  9 20  1  0  0  0  0
  9 29  1  0  0  0  0
  9 30  1  0  0  0  0
 10 11  1  0  0  0  0
 10 12  1  0  0  0  0
 10 21  2  0  0  0  0
 11 31  1  0  0  0  0
 11 32  1  0  0  0  0
 11 33  1  0  0  0  0
 12 34  1  0  0  0  0
 14 40  1  0  0  0  0
 15 35  1  0  0  0  0
 16 36  1  0  0  0  0
 18 37  1  0  0  0  0
 19 38  1  0  0  0  0
 20 39  1  0  0  0  0
M  END
>  <HET>
 SIA  A 467      39

>  <HETNAM>
     SIA O-SIALIC ACID

>  <FORMUL>
      SIA    C11 H19 N1 O9

$$$$
