4PP.pdb
  rDOCK(R)          3D
libRbt.so/2013.1/901 2013/11/27
 34 36  0  0  0  0  0  0  0  0999 V2000
    8.5149    4.0181   19.8178 C   0  0  0  0  0  0
    8.1484    2.8739   20.1199 O   0  0  0  0  0  0
    9.8432    4.2893   19.6298 O   0  0  0  0  0  0
    8.6571   -0.2885   16.7467 N   0  0  0  0  0  0
    7.6345    0.4969   17.3141 C   0  0  0  0  0  0
    7.3364    1.7594   16.7609 C   0  0  0  0  0  0
    8.0582    2.2353   15.6469 C   0  0  0  0  0  0
    9.0892    1.4372   15.0760 C   0  0  0  0  0  0
    9.3819    0.1820   15.6284 C   0  0  0  0  0  0
    7.7094    3.5732   15.0998 N   0  0  0  0  0  0
    7.4540    5.1240   19.6473 C   0  0  0  0  0  0
    6.6022    4.8793   18.3992 C   0  0  0  0  0  0
    7.5532    4.7841   17.2100 C   0  0  0  0  0  0
    6.7853    4.3268   15.9750 C   0  0  0  0  0  0
    4.4035   -0.7940   20.9431 N   0  0  0  0  0  0
    2.5930   -1.6149   22.0713 N   0  0  0  0  0  0
    3.4310   -0.6290   21.8205 C   0  0  0  0  0  0
    4.9905    5.4009   23.2658 C   0  0  0  0  0  0
    5.8519    6.4701   22.8960 C   0  0  0  0  0  0
    6.6426    6.3680   21.7221 C   0  0  0  0  0  0
    6.5804    5.1978   20.9101 C   0  0  0  0  0  0
    5.7155    4.1160   21.2784 C   0  0  0  0  0  0
    4.9168    4.2154   22.4585 C   0  0  0  0  0  0
    2.1239    2.1324   24.2287 C   0  0  0  0  0  0
    2.9743    3.2220   23.8798 C   0  0  0  0  0  0
    3.9691    3.0530   22.8644 C   0  0  0  0  0  0
    4.0988    1.7978   22.2142 C   0  0  0  0  0  0
    3.2542    0.7130   22.5560 C   0  0  0  0  0  0
    2.2645    0.8762   23.5657 C   0  0  0  0  0  0
   10.4789    3.6077   19.7264 H   0  0  0  0  0  0
    8.0563    3.9202   14.2463 H   0  0  0  0  0  0
    4.5067   -1.6561   20.4791 H   0  0  0  0  0  0
    2.6950   -2.4775   21.6079 H   0  0  0  0  0  0
    1.8650   -1.4888   22.7220 H   0  0  0  0  0  0
  1  2  2  0  0  0
  1  3  1  0  0  0
  1 11  1  0  0  0
  3 30  1  0  0  0
  4  5  2  0  0  0
  4  9  1  0  0  0
  5  6  1  0  0  0
  6  7  2  0  0  0
  7  8  1  0  0  0
  7 10  1  0  0  0
  8  9  2  0  0  0
 10 14  1  0  0  0
 10 31  1  0  0  0
 11 12  1  0  0  0
 11 21  1  0  0  0
 12 13  1  0  0  0
 13 14  1  0  0  0
 15 17  2  0  0  0
 15 32  1  0  0  0
 16 17  1  0  0  0
 16 33  1  0  0  0
 16 34  1  0  0  0
 17 28  1  0  0  0
 18 19  2  0  0  0
 18 23  1  0  0  0
 19 20  1  0  0  0
 20 21  2  0  0  0
 21 22  1  0  0  0
 22 23  2  0  0  0
 23 26  1  0  0  0
 24 25  2  0  0  0
 24 29  1  0  0  0
 25 26  1  0  0  0
 26 27  2  0  0  0
 27 28  1  0  0  0
 28 29  2  0  0  0
M  END
>  <CHROM.0>
149.28376447,-171.30333165,-60.74922062,171.87098771,-60.08581710,-174.43955931
-45.32602033,-3.32673349,129.91685211,-30.75323226

>  <CHROM.1>
0.21698424,-69.36353975,10.16606549,72.05567483,-56.29323472,113.88656245
171.26260475,-150.29172415,4.02409641,12.05984110,6.14065805,2.73793606,19.93574825
-0.36132498,0.87490142,0.53075842

>  <FORMUL>
      4PP    C23 H24 N4 O2

>  <HET>
 4PP  C 500      29

>  <HETNAM>
     4PP (2S)-(3'-AMIDINO-3-BIPHENYL)-5-(4-PYRIDYLAMINO)PENTANOI
   2 4PP C ACID

>  <Name>
4PP.pdb

>  <RI>
0

>  <Rbt.Current_Directory>
/home/malgorzata/Desktop/rDOCK_IFD/Wyniki/7b_factor_Xa/IFD

>  <Rbt.Executable>
rbdock ($Id: //depot/dev/client3/rdock/2013.1/src/exe/rbdock.cxx#4 $)

>  <Rbt.Library>
libRbt.so (2013.1, Build901 2013/11/27)

>  <Rbt.Parameter_File>
/home/malgorzata/Desktop/rDock_2013.1_src/data/scripts/hard_docking.prm

>  <Rbt.Receptor>
cavity.prm

>  <SCORE>
-31.5306

>  <SCORE.INTER>
-13.2397

>  <SCORE.INTER.CONST>
1

>  <SCORE.INTER.POLAR>
0

>  <SCORE.INTER.REPUL>
0

>  <SCORE.INTER.ROT>
9

>  <SCORE.INTER.VDW>
-27.6397

>  <SCORE.INTER.norm>
-0.456542

>  <SCORE.INTRA>
-4.55461

>  <SCORE.INTRA.DIHEDRAL>
-10.8946

>  <SCORE.INTRA.DIHEDRAL.0>
20.1331

>  <SCORE.INTRA.POLAR>
0

>  <SCORE.INTRA.POLAR.0>
0

>  <SCORE.INTRA.REPUL>
0

>  <SCORE.INTRA.REPUL.0>
0

>  <SCORE.INTRA.VDW>
0.892677

>  <SCORE.INTRA.VDW.0>
0.0644272

>  <SCORE.INTRA.norm>
-0.157055

>  <SCORE.RESTR>
0

>  <SCORE.RESTR.CAVITY>
0

>  <SCORE.RESTR.norm>
0

>  <SCORE.SYSTEM>
-13.7363

>  <SCORE.SYSTEM.CONST>
0

>  <SCORE.SYSTEM.DIHEDRAL>
2.20216

>  <SCORE.SYSTEM.POLAR>
-3.24187

>  <SCORE.SYSTEM.REPUL>
0.0243994

>  <SCORE.SYSTEM.VDW>
-3.93699

>  <SCORE.SYSTEM.norm>
-0.473665

>  <SCORE.heavy>
29

>  <SCORE.norm>
-1.08726

$$$$
4PP.pdb
  rDOCK(R)          3D
libRbt.so/2013.1/901 2013/11/27
 34 36  0  0  0  0  0  0  0  0999 V2000
    2.7784    2.1384   23.1262 C   0  0  0  0  0  0
    1.7022    2.3889   22.5659 O   0  0  0  0  0  0
    2.8925    2.2582   24.4848 O   0  0  0  0  0  0
    4.5112   -4.6404   17.9036 N   0  0  0  0  0  0
    5.0961   -5.2185   19.0474 C   0  0  0  0  0  0
    5.4237   -4.4034   20.1507 C   0  0  0  0  0  0
    5.1693   -3.0170   20.1102 C   0  0  0  0  0  0
    4.5764   -2.4381   18.9531 C   0  0  0  0  0  0
    4.2513   -3.2520   17.8585 C   0  0  0  0  0  0
    5.5336   -2.1983   21.2968 N   0  0  0  0  0  0
    3.9786    1.6811   22.2729 C   0  0  0  0  0  0
    3.5083    0.9876   20.9918 C   0  0  0  0  0  0
    3.7868   -0.5037   21.1524 C   0  0  0  0  0  0
    5.2895   -0.7538   21.0929 C   0  0  0  0  0  0
    2.7228    9.3146   26.2029 N   0  0  0  0  0  0
    2.5470    7.0359   26.1662 N   0  0  0  0  0  0
    3.0418    8.1510   25.6671 C   0  0  0  0  0  0
    6.5746    5.0862   21.3212 C   0  0  0  0  0  0
    6.8412    3.8008   20.7747 C   0  0  0  0  0  0
    5.9926    2.7081   21.0897 C   0  0  0  0  0  0
    4.8731    2.8900   21.9536 C   0  0  0  0  0  0
    4.6001    4.1825   22.5092 C   0  0  0  0  0  0
    5.4510    5.2855   22.1933 C   0  0  0  0  0  0
    5.4725    9.1465   22.7977 C   0  0  0  0  0  0
    5.7588    7.8709   22.2293 C   0  0  0  0  0  0
    5.1612    6.6936   22.7827 C   0  0  0  0  0  0
    4.2875    6.8095   23.8955 C   0  0  0  0  0  0
    3.9983    8.0754   24.4620 C   0  0  0  0  0  0
    4.5910    9.2484   23.9157 C   0  0  0  0  0  0
    3.7179    2.1050   24.9010 H   0  0  0  0  0  0
    5.8984   -2.5772   22.1291 H   0  0  0  0  0  0
    2.1105    9.3507   26.9729 H   0  0  0  0  0  0
    1.9346    7.0705   26.9363 H   0  0  0  0  0  0
    2.7897    6.1685   25.7689 H   0  0  0  0  0  0
  1  2  2  0  0  0
  1  3  1  0  0  0
  1 11  1  0  0  0
  3 30  1  0  0  0
  4  5  2  0  0  0
  4  9  1  0  0  0
  5  6  1  0  0  0
  6  7  2  0  0  0
  7  8  1  0  0  0
  7 10  1  0  0  0
  8  9  2  0  0  0
 10 14  1  0  0  0
 10 31  1  0  0  0
 11 12  1  0  0  0
 11 21  1  0  0  0
 12 13  1  0  0  0
 13 14  1  0  0  0
 15 17  2  0  0  0
 15 32  1  0  0  0
 16 17  1  0  0  0
 16 33  1  0  0  0
 16 34  1  0  0  0
 17 28  1  0  0  0
 18 19  2  0  0  0
 18 23  1  0  0  0
 19 20  1  0  0  0
 20 21  2  0  0  0
 21 22  1  0  0  0
 22 23  2  0  0  0
 23 26  1  0  0  0
 24 25  2  0  0  0
 24 29  1  0  0  0
 25 26  1  0  0  0
 26 27  2  0  0  0
 27 28  1  0  0  0
 28 29  2  0  0  0
M  END
>  <CHROM.0>
155.63132685,-172.19783517,-60.74922062,172.32275216,-59.52377939,-82.30178362
-39.94407775,11.83611236,146.70266734,67.79405011

>  <CHROM.1>
-177.28055203,-26.87544334,176.57253005,73.85912312,-107.42279745,-175.49061308
-70.75292642,178.10374995,-178.39161997,16.29846202,4.44099381,2.69666602
22.08477620,1.49074384,-0.74969527,-2.78891197

>  <FORMUL>
      4PP    C23 H24 N4 O2

>  <HET>
 4PP  C 500      29

>  <HETNAM>
     4PP (2S)-(3'-AMIDINO-3-BIPHENYL)-5-(4-PYRIDYLAMINO)PENTANOI
   2 4PP C ACID

>  <Name>
4PP.pdb

>  <RI>
0

>  <Rbt.Current_Directory>
/home/malgorzata/Desktop/rDOCK_IFD/Wyniki/7b_factor_Xa/IFD

>  <Rbt.Executable>
rbdock ($Id: //depot/dev/client3/rdock/2013.1/src/exe/rbdock.cxx#4 $)

>  <Rbt.Library>
libRbt.so (2013.1, Build901 2013/11/27)

>  <Rbt.Parameter_File>
/home/malgorzata/Desktop/rDock_2013.1_src/data/scripts/hard_docking.prm

>  <Rbt.Receptor>
cavity.prm

>  <SCORE>
-30.0618

>  <SCORE.INTER>
-11.4575

>  <SCORE.INTER.CONST>
1

>  <SCORE.INTER.POLAR>
-0.973693

>  <SCORE.INTER.REPUL>
0

>  <SCORE.INTER.ROT>
9

>  <SCORE.INTER.VDW>
-22.5469

>  <SCORE.INTER.norm>
-0.395086

>  <SCORE.INTRA>
-3.24841

>  <SCORE.INTRA.DIHEDRAL>
-9.95245

>  <SCORE.INTRA.DIHEDRAL.0>
20.1331

>  <SCORE.INTRA.POLAR>
0

>  <SCORE.INTRA.POLAR.0>
0

>  <SCORE.INTRA.REPUL>
0

>  <SCORE.INTRA.REPUL.0>
0

>  <SCORE.INTRA.VDW>
1.72782

>  <SCORE.INTRA.VDW.0>
0.0644272

>  <SCORE.INTRA.norm>
-0.112014

>  <SCORE.RESTR>
0.101753

>  <SCORE.RESTR.CAVITY>
0.101753

>  <SCORE.RESTR.norm>
0.00350872

>  <SCORE.SYSTEM>
-15.4577

>  <SCORE.SYSTEM.CONST>
0

>  <SCORE.SYSTEM.DIHEDRAL>
4.38377

>  <SCORE.SYSTEM.POLAR>
-4.06465

>  <SCORE.SYSTEM.REPUL>
0.0219305

>  <SCORE.SYSTEM.VDW>
-3.93941

>  <SCORE.SYSTEM.norm>
-0.533024

>  <SCORE.heavy>
29

>  <SCORE.norm>
-1.03661

$$$$
4PP.pdb
  rDOCK(R)          3D
libRbt.so/2013.1/901 2013/11/27
 34 36  0  0  0  0  0  0  0  0999 V2000
    5.1001    5.5211   17.1364 C   0  0  0  0  0  0
    5.1501    6.7113   16.7961 O   0  0  0  0  0  0
    3.9040    4.8557   17.1429 O   0  0  0  0  0  0
    7.2985   -1.9816   22.1000 N   0  0  0  0  0  0
    6.0069   -1.6754   21.6284 C   0  0  0  0  0  0
    5.7360   -0.3866   21.1241 C   0  0  0  0  0  0
    6.7508    0.5920   21.0929 C   0  0  0  0  0  0
    8.0547    0.2771   21.5687 C   0  0  0  0  0  0
    8.3203   -1.0058   22.0685 C   0  0  0  0  0  0
    6.4171    1.9371   20.5540 N   0  0  0  0  0  0
    6.4029    4.8021   17.5403 C   0  0  0  0  0  0
    6.3251    4.2947   18.9824 C   0  0  0  0  0  0
    7.6566    3.6217   19.3012 C   0  0  0  0  0  0
    7.5521    2.8825   20.6304 C   0  0  0  0  0  0
    0.7057   -1.6639   16.5298 N   0  0  0  0  0  0
    1.1046    0.5644   16.8457 N   0  0  0  0  0  0
    1.5164   -0.6248   16.4540 C   0  0  0  0  0  0
    7.2516    1.5520   14.7195 C   0  0  0  0  0  0
    8.1133    2.6802   14.8007 C   0  0  0  0  0  0
    7.8277    3.7240   15.7186 C   0  0  0  0  0  0
    6.6796    3.6501   16.5606 C   0  0  0  0  0  0
    5.8061    2.5166   16.4821 C   0  0  0  0  0  0
    6.0909    1.4630   15.5605 C   0  0  0  0  0  0
    4.7191   -2.1232   14.8322 C   0  0  0  0  0  0
    5.6051   -1.0085   14.9001 C   0  0  0  0  0  0
    5.1563    0.2250   15.4716 C   0  0  0  0  0  0
    3.8292    0.3251   15.9656 C   0  0  0  0  0  0
    2.9462   -0.7809   15.9023 C   0  0  0  0  0  0
    3.3878   -2.0088   15.3340 C   0  0  0  0  0  0
    3.1176    5.3033   16.8998 H   0  0  0  0  0  0
    5.5351    2.1731   20.1859 H   0  0  0  0  0  0
   -0.2060   -1.5522   16.8841 H   0  0  0  0  0  0
    0.1931    0.6776   17.2002 H   0  0  0  0  0  0
    1.7084    1.3395   16.7838 H   0  0  0  0  0  0
  1  2  2  0  0  0
  1  3  1  0  0  0
  1 11  1  0  0  0
  3 30  1  0  0  0
  4  5  2  0  0  0
  4  9  1  0  0  0
  5  6  1  0  0  0
  6  7  2  0  0  0
  7  8  1  0  0  0
  7 10  1  0  0  0
  8  9  2  0  0  0
 10 14  1  0  0  0
 10 31  1  0  0  0
 11 12  1  0  0  0
 11 21  1  0  0  0
 12 13  1  0  0  0
 13 14  1  0  0  0
 15 17  2  0  0  0
 15 32  1  0  0  0
 16 17  1  0  0  0
 16 33  1  0  0  0
 16 34  1  0  0  0
 17 28  1  0  0  0
 18 19  2  0  0  0
 18 23  1  0  0  0
 19 20  1  0  0  0
 20 21  2  0  0  0
 21 22  1  0  0  0
 22 23  2  0  0  0
 23 26  1  0  0  0
 24 25  2  0  0  0
 24 29  1  0  0  0
 25 26  1  0  0  0
 26 27  2  0  0  0
 27 28  1  0  0  0
 28 29  2  0  0  0
M  END
>  <CHROM.0>
155.14052629,-17.54223585,-60.74922062,172.50198745,-179.18910387,-83.70996193
24.83150077,-135.44492515,175.28628641,160.86620164

>  <CHROM.1>
-0.77328842,119.77442341,177.60447038,134.81776734,-179.09007851,114.33973898
-170.01842675,55.54037340,-173.53975194,19.67611470,5.51238706,1.41328524
17.74547187,-0.15633481,-0.89152617,-0.60788439

>  <FORMUL>
      4PP    C23 H24 N4 O2

>  <HET>
 4PP  C 500      29

>  <HETNAM>
     4PP (2S)-(3'-AMIDINO-3-BIPHENYL)-5-(4-PYRIDYLAMINO)PENTANOI
   2 4PP C ACID

>  <Name>
4PP.pdb

>  <RI>
0

>  <Rbt.Current_Directory>
/home/malgorzata/Desktop/rDOCK_IFD/Wyniki/7b_factor_Xa/IFD

>  <Rbt.Executable>
rbdock ($Id: //depot/dev/client3/rdock/2013.1/src/exe/rbdock.cxx#4 $)

>  <Rbt.Library>
libRbt.so (2013.1, Build901 2013/11/27)

>  <Rbt.Parameter_File>
/home/malgorzata/Desktop/rDock_2013.1_src/data/scripts/hard_docking.prm

>  <Rbt.Receptor>
cavity.prm

>  <SCORE>
-24.4766

>  <SCORE.INTER>
-2.96821

>  <SCORE.INTER.CONST>
1

>  <SCORE.INTER.POLAR>
0

>  <SCORE.INTER.REPUL>
0.101668

>  <SCORE.INTER.ROT>
9

>  <SCORE.INTER.VDW>
-17.8765

>  <SCORE.INTER.norm>
-0.102352

>  <SCORE.INTRA>
-7.18783

>  <SCORE.INTRA.DIHEDRAL>
-14.969

>  <SCORE.INTRA.DIHEDRAL.0>
20.1331

>  <SCORE.INTRA.POLAR>
0

>  <SCORE.INTRA.POLAR.0>
0

>  <SCORE.INTRA.REPUL>
0

>  <SCORE.INTRA.REPUL.0>
0

>  <SCORE.INTRA.VDW>
0.296677

>  <SCORE.INTRA.VDW.0>
0.0644272

>  <SCORE.INTRA.norm>
-0.247856

>  <SCORE.RESTR>
0.561333

>  <SCORE.RESTR.CAVITY>
0.561333

>  <SCORE.RESTR.norm>
0.0193563

>  <SCORE.SYSTEM>
-14.8819

>  <SCORE.SYSTEM.CONST>
0

>  <SCORE.SYSTEM.DIHEDRAL>
7.15067

>  <SCORE.SYSTEM.POLAR>
-4.14217

>  <SCORE.SYSTEM.REPUL>
0.00437209

>  <SCORE.SYSTEM.VDW>
-4.39572

>  <SCORE.SYSTEM.norm>
-0.513169

>  <SCORE.heavy>
29

>  <SCORE.norm>
-0.844021

$$$$
4PP.pdb
  rDOCK(R)          3D
libRbt.so/2013.1/901 2013/11/27
 34 36  0  0  0  0  0  0  0  0999 V2000
    7.8360    4.4867   20.0187 C   0  0  0  0  0  0
    8.4853    3.7479   20.7719 O   0  0  0  0  0  0
    8.4635    5.1641   19.0084 O   0  0  0  0  0  0
    5.2739   -3.6821   19.5818 N   0  0  0  0  0  0
    6.0559   -3.3967   20.7183 C   0  0  0  0  0  0
    6.1566   -2.0679   21.1797 C   0  0  0  0  0  0
    5.4802   -1.0292   20.5075 C   0  0  0  0  0  0
    4.6898   -1.3229   19.3609 C   0  0  0  0  0  0
    4.5915   -2.6456   18.9058 C   0  0  0  0  0  0
    5.6180    0.3561   21.0301 N   0  0  0  0  0  0
    6.3145    4.6215   20.2303 C   0  0  0  0  0  0
    5.7509    3.3965   20.9548 C   0  0  0  0  0  0
    5.1711    2.4663   19.8938 C   0  0  0  0  0  0
    4.5376    1.2535   20.5661 C   0  0  0  0  0  0
   -0.5026   11.0957   23.4190 N   0  0  0  0  0  0
    0.9293    9.8684   24.7105 N   0  0  0  0  0  0
    0.5356   10.2871   23.5243 C   0  0  0  0  0  0
    5.5261    8.2984   22.4883 C   0  0  0  0  0  0
    6.7286    7.5683   22.6956 C   0  0  0  0  0  0
    6.9717    6.3810   21.9574 C   0  0  0  0  0  0
    6.0159    5.9131   21.0086 C   0  0  0  0  0  0
    4.8012    6.6435   20.7965 C   0  0  0  0  0  0
    4.5533    7.8399   21.5364 C   0  0  0  0  0  0
    1.5696    9.6919   19.8217 C   0  0  0  0  0  0
    2.7737    8.9481   19.9920 C   0  0  0  0  0  0
    3.2440    8.6451   21.3098 C   0  0  0  0  0  0
    2.5040    9.0906   22.4362 C   0  0  0  0  0  0
    1.3055    9.8279   22.2716 C   0  0  0  0  0  0
    0.8348   10.1322   20.9634 C   0  0  0  0  0  0
    7.9637    5.6917   18.4170 H   0  0  0  0  0  0
    6.3500    0.6450   21.6216 H   0  0  0  0  0  0
   -0.9870   11.3826   24.2266 H   0  0  0  0  0  0
    0.4459   10.1545   25.5190 H   0  0  0  0  0  0
    1.7069    9.2695   24.7880 H   0  0  0  0  0  0
  1  2  2  0  0  0
  1  3  1  0  0  0
  1 11  1  0  0  0
  3 30  1  0  0  0
  4  5  2  0  0  0
  4  9  1  0  0  0
  5  6  1  0  0  0
  6  7  2  0  0  0
  7  8  1  0  0  0
  7 10  1  0  0  0
  8  9  2  0  0  0
 10 14  1  0  0  0
 10 31  1  0  0  0
 11 12  1  0  0  0
 11 21  1  0  0  0
 12 13  1  0  0  0
 13 14  1  0  0  0
 15 17  2  0  0  0
 15 32  1  0  0  0
 16 17  1  0  0  0
 16 33  1  0  0  0
 16 34  1  0  0  0
 17 28  1  0  0  0
 18 19  2  0  0  0
 18 23  1  0  0  0
 19 20  1  0  0  0
 20 21  2  0  0  0
 21 22  1  0  0  0
 22 23  2  0  0  0
 23 26  1  0  0  0
 24 25  2  0  0  0
 24 29  1  0  0  0
 25 26  1  0  0  0
 26 27  2  0  0  0
 27 28  1  0  0  0
 28 29  2  0  0  0
M  END
>  <CHROM.0>
148.07434636,-5.16240696,-60.74922062,172.21908447,-57.20168173,-83.22478938
27.45728042,-1.41892333,136.70570933,164.61267882

>  <CHROM.1>
177.25995746,-23.88939696,-160.08887341,-125.01630794,-97.69110505,-31.62699628
-177.48644184,-74.90446370,172.65056066,133.00946137,4.59492001,4.85359359
21.09662139,-1.22353039,0.19894050,0.13123569

>  <FORMUL>
      4PP    C23 H24 N4 O2

>  <HET>
 4PP  C 500      29

>  <HETNAM>
     4PP (2S)-(3'-AMIDINO-3-BIPHENYL)-5-(4-PYRIDYLAMINO)PENTANOI
   2 4PP C ACID

>  <Name>
4PP.pdb

>  <RI>
0

>  <Rbt.Current_Directory>
/home/malgorzata/Desktop/rDOCK_IFD/Wyniki/7b_factor_Xa/IFD

>  <Rbt.Executable>
rbdock ($Id: //depot/dev/client3/rdock/2013.1/src/exe/rbdock.cxx#4 $)

>  <Rbt.Library>
libRbt.so (2013.1, Build901 2013/11/27)

>  <Rbt.Parameter_File>
/home/malgorzata/Desktop/rDock_2013.1_src/data/scripts/hard_docking.prm

>  <Rbt.Receptor>
cavity.prm

>  <SCORE>
-28.2048

>  <SCORE.INTER>
-8.1748

>  <SCORE.INTER.CONST>
1

>  <SCORE.INTER.POLAR>
0

>  <SCORE.INTER.REPUL>
0

>  <SCORE.INTER.ROT>
9

>  <SCORE.INTER.VDW>
-22.5748

>  <SCORE.INTER.norm>
-0.28189

>  <SCORE.INTRA>
-4.04882

>  <SCORE.INTRA.DIHEDRAL>
-7.0015

>  <SCORE.INTRA.DIHEDRAL.0>
20.1331

>  <SCORE.INTRA.POLAR>
0

>  <SCORE.INTRA.POLAR.0>
0

>  <SCORE.INTRA.REPUL>
0

>  <SCORE.INTRA.REPUL.0>
0

>  <SCORE.INTRA.VDW>
-0.548069

>  <SCORE.INTRA.VDW.0>
0.0644272

>  <SCORE.INTRA.norm>
-0.139614

>  <SCORE.RESTR>
0

>  <SCORE.RESTR.CAVITY>
0

>  <SCORE.RESTR.norm>
0

>  <SCORE.SYSTEM>
-15.9811

>  <SCORE.SYSTEM.CONST>
0

>  <SCORE.SYSTEM.DIHEDRAL>
4.34843

>  <SCORE.SYSTEM.POLAR>
-4.15333

>  <SCORE.SYSTEM.VDW>
-4.03404

>  <SCORE.SYSTEM.norm>
-0.551074

>  <SCORE.heavy>
29

>  <SCORE.norm>
-0.972578

$$$$
4PP.pdb
  rDOCK(R)          3D
libRbt.so/2013.1/901 2013/11/27
 34 36  0  0  0  0  0  0  0  0999 V2000
    0.5196    4.5028   21.5525 C   0  0  0  0  0  0
    0.6540    5.2707   20.5897 O   0  0  0  0  0  0
   -0.6396    3.7927   21.7113 O   0  0  0  0  0  0
   -0.6429   10.2214   25.4578 N   0  0  0  0  0  0
   -0.9664    9.4378   26.5829 C   0  0  0  0  0  0
   -0.2638    8.2388   26.8231 C   0  0  0  0  0  0
    0.7562    7.8243   25.9420 C   0  0  0  0  0  0
    1.0806    8.6205   24.8077 C   0  0  0  0  0  0
    0.3804    9.8124   24.5729 C   0  0  0  0  0  0
    1.4676    6.5520   26.2355 N   0  0  0  0  0  0
    1.6786    4.3525   22.5584 C   0  0  0  0  0  0
    1.1863    4.5442   23.9951 C   0  0  0  0  0  0
    2.4148    4.7667   24.8719 C   0  0  0  0  0  0
    2.5194    6.2416   25.2429 C   0  0  0  0  0  0
    7.8130    4.8670   19.6166 N   0  0  0  0  0  0
    9.8191    3.8001   19.8654 N   0  0  0  0  0  0
    8.5030    3.7882   19.9372 C   0  0  0  0  0  0
    3.5086    0.3966   22.0669 C   0  0  0  0  0  0
    2.1649    0.5192   22.5159 C   0  0  0  0  0  0
    1.5848    1.8051   22.6694 C   0  0  0  0  0  0
    2.3417    2.9774   22.3775 C   0  0  0  0  0  0
    3.6970    2.8606   21.9264 C   0  0  0  0  0  0
    4.2843    1.5680   21.7691 C   0  0  0  0  0  0
    7.7539    0.0653   20.7809 C   0  0  0  0  0  0
    6.4071    0.1563   21.2393 C   0  0  0  0  0  0
    5.7500    1.4276   21.2730 C   0  0  0  0  0  0
    6.4492    2.5879   20.8487 C   0  0  0  0  0  0
    7.7868    2.5018   20.3901 C   0  0  0  0  0  0
    8.4443    1.2400   20.3559 C   0  0  0  0  0  0
   -0.7397    3.2167   22.4435 H   0  0  0  0  0  0
    1.2607    5.9777   27.0079 H   0  0  0  0  0  0
    8.2815    5.6835   19.3284 H   0  0  0  0  0  0
   10.2890    4.6159   19.5774 H   0  0  0  0  0  0
   10.3322    2.9933   20.0999 H   0  0  0  0  0  0
  1  2  2  0  0  0
  1  3  1  0  0  0
  1 11  1  0  0  0
  3 30  1  0  0  0
  4  5  2  0  0  0
  4  9  1  0  0  0
  5  6  1  0  0  0
  6  7  2  0  0  0
  7  8  1  0  0  0
  7 10  1  0  0  0
  8  9  2  0  0  0
 10 14  1  0  0  0
 10 31  1  0  0  0
 11 12  1  0  0  0
 11 21  1  0  0  0
 12 13  1  0  0  0
 13 14  1  0  0  0
 15 17  2  0  0  0
 15 32  1  0  0  0
 16 17  1  0  0  0
 16 33  1  0  0  0
 16 34  1  0  0  0
 17 28  1  0  0  0
 18 19  2  0  0  0
 18 23  1  0  0  0
 19 20  1  0  0  0
 20 21  2  0  0  0
 21 22  1  0  0  0
 22 23  2  0  0  0
 23 26  1  0  0  0
 24 25  2  0  0  0
 24 29  1  0  0  0
 25 26  1  0  0  0
 26 27  2  0  0  0
 27 28  1  0  0  0
 28 29  2  0  0  0
M  END
>  <CHROM.0>
149.23921099,-15.98407797,-60.74922062,172.56482522,-173.87181566,-82.37989118
25.15187729,1.32975033,151.36303986,167.46020057

>  <CHROM.1>
-179.62950848,128.91830800,-179.44994550,-135.53990386,-164.58561095,-65.15795623
104.63023958,72.86659531,-19.01108019,-6.86849982,3.29402893,4.34957685,22.70361730
2.37072956,0.32307225,0.34529234

>  <FORMUL>
      4PP    C23 H24 N4 O2

>  <HET>
 4PP  C 500      29

>  <HETNAM>
     4PP (2S)-(3'-AMIDINO-3-BIPHENYL)-5-(4-PYRIDYLAMINO)PENTANOI
   2 4PP C ACID

>  <Name>
4PP.pdb

>  <RI>
0

>  <Rbt.Current_Directory>
/home/malgorzata/Desktop/rDOCK_IFD/Wyniki/7b_factor_Xa/IFD

>  <Rbt.Executable>
rbdock ($Id: //depot/dev/client3/rdock/2013.1/src/exe/rbdock.cxx#4 $)

>  <Rbt.Library>
libRbt.so (2013.1, Build901 2013/11/27)

>  <Rbt.Parameter_File>
/home/malgorzata/Desktop/rDock_2013.1_src/data/scripts/hard_docking.prm

>  <Rbt.Receptor>
cavity.prm

>  <SCORE>
-29.7338

>  <SCORE.INTER>
-8.8692

>  <SCORE.INTER.CONST>
1

>  <SCORE.INTER.POLAR>
-1.49827

>  <SCORE.INTER.REPUL>
0

>  <SCORE.INTER.ROT>
9

>  <SCORE.INTER.VDW>
-18.1751

>  <SCORE.INTER.norm>
-0.305835

>  <SCORE.INTRA>
-4.72803

>  <SCORE.INTRA.DIHEDRAL>
-8.14663

>  <SCORE.INTRA.DIHEDRAL.0>
20.1331

>  <SCORE.INTRA.POLAR>
0

>  <SCORE.INTRA.POLAR.0>
0

>  <SCORE.INTRA.REPUL>
0

>  <SCORE.INTRA.REPUL.0>
0

>  <SCORE.INTRA.VDW>
-0.654717

>  <SCORE.INTRA.VDW.0>
0.0644272

>  <SCORE.INTRA.norm>
-0.163036

>  <SCORE.RESTR>
0

>  <SCORE.RESTR.CAVITY>
0

>  <SCORE.RESTR.norm>
0

>  <SCORE.SYSTEM>
-16.1366

>  <SCORE.SYSTEM.CONST>
0

>  <SCORE.SYSTEM.DIHEDRAL>
4.63223

>  <SCORE.SYSTEM.POLAR>
-4.14837

>  <SCORE.SYSTEM.VDW>
-4.34825

>  <SCORE.SYSTEM.norm>
-0.556434

>  <SCORE.heavy>
29

>  <SCORE.norm>
-1.0253

$$$$
4PP.pdb
  rDOCK(R)          3D
libRbt.so/2013.1/901 2013/11/27
 34 36  0  0  0  0  0  0  0  0999 V2000
    6.2562    2.3631   17.7353 C   0  0  0  0  0  0
    5.6713    3.2775   17.1383 O   0  0  0  0  0  0
    6.7359    2.5627   19.0015 O   0  0  0  0  0  0
   13.7649    2.7202   20.5590 N   0  0  0  0  0  0
   13.4455    3.4337   19.3871 C   0  0  0  0  0  0
   12.3674    3.0083   18.5836 C   0  0  0  0  0  0
   11.6132    1.8742   18.9490 C   0  0  0  0  0  0
   11.9386    1.1579   20.1350 C   0  0  0  0  0  0
   13.0107    1.5846   20.9317 C   0  0  0  0  0  0
   10.4872    1.4629   18.0693 N   0  0  0  0  0  0
    6.4246    0.9993   17.0358 C   0  0  0  0  0  0
    7.8953    0.5755   17.0069 C   0  0  0  0  0  0
    8.3398    0.3737   18.4522 C   0  0  0  0  0  0
    9.8534    0.1988   18.5034 C   0  0  0  0  0  0
    2.9394    2.6224   24.8099 N   0  0  0  0  0  0
    3.8719    3.3219   22.8438 N   0  0  0  0  0  0
    3.3745    2.3575   23.5920 C   0  0  0  0  0  0
    3.9525   -2.0460   18.9991 C   0  0  0  0  0  0
    4.4408   -2.2538   17.6798 C   0  0  0  0  0  0
    5.2406   -1.2609   17.0569 C   0  0  0  0  0  0
    5.5574   -0.0533   17.7453 C   0  0  0  0  0  0
    5.0667    0.1629   19.0744 C   0  0  0  0  0  0
    4.2626   -0.8347   19.7056 C   0  0  0  0  0  0
    2.7145   -1.4599   23.2391 C   0  0  0  0  0  0
    3.1959   -1.6980   21.9186 C   0  0  0  0  0  0
    3.7313   -0.6159   21.1492 C   0  0  0  0  0  0
    3.7767    0.6868   21.7114 C   0  0  0  0  0  0
    3.3017    0.9274   23.0241 C   0  0  0  0  0  0
    2.7676   -0.1452   23.7922 C   0  0  0  0  0  0
    6.6100    3.3887   19.4254 H   0  0  0  0  0  0
   10.1947    1.9769   17.2822 H   0  0  0  0  0  0
    2.9910    3.5402   25.1623 H   0  0  0  0  0  0
    3.9240    4.2402   23.1948 H   0  0  0  0  0  0
    4.1912    3.1240   21.9338 H   0  0  0  0  0  0
  1  2  2  0  0  0
  1  3  1  0  0  0
  1 11  1  0  0  0
  3 30  1  0  0  0
  4  5  2  0  0  0
  4  9  1  0  0  0
  5  6  1  0  0  0
  6  7  2  0  0  0
  7  8  1  0  0  0
  7 10  1  0  0  0
  8  9  2  0  0  0
 10 14  1  0  0  0
 10 31  1  0  0  0
 11 12  1  0  0  0
 11 21  1  0  0  0
 12 13  1  0  0  0
 13 14  1  0  0  0
 15 17  2  0  0  0
 15 32  1  0  0  0
 16 17  1  0  0  0
 16 33  1  0  0  0
 16 34  1  0  0  0
 17 28  1  0  0  0
 18 19  2  0  0  0
 18 23  1  0  0  0
 19 20  1  0  0  0
 20 21  2  0  0  0
 21 22  1  0  0  0
 22 23  2  0  0  0
 23 26  1  0  0  0
 24 25  2  0  0  0
 24 29  1  0  0  0
 25 26  1  0  0  0
 26 27  2  0  0  0
 27 28  1  0  0  0
 28 29  2  0  0  0
M  END
>  <CHROM.0>
-42.67017463,-165.45611824,-60.74922062,-63.96962173,-58.44183071,64.17621308
26.65545427,3.43689678,157.79825221,175.80201607

>  <CHROM.1>
1.00851326,125.57761620,175.17806466,134.89184105,64.18626681,161.44540038
-169.78442225,65.31323463,179.85455783,14.34175841,6.78401714,0.94815475
19.91118026,0.21842460,-0.32332793,-1.97042289

>  <FORMUL>
      4PP    C23 H24 N4 O2

>  <HET>
 4PP  C 500      29

>  <HETNAM>
     4PP (2S)-(3'-AMIDINO-3-BIPHENYL)-5-(4-PYRIDYLAMINO)PENTANOI
   2 4PP C ACID

>  <Name>
4PP.pdb

>  <RI>
0

>  <Rbt.Current_Directory>
/home/malgorzata/Desktop/rDOCK_IFD/Wyniki/7b_factor_Xa/IFD

>  <Rbt.Executable>
rbdock ($Id: //depot/dev/client3/rdock/2013.1/src/exe/rbdock.cxx#4 $)

>  <Rbt.Library>
libRbt.so (2013.1, Build901 2013/11/27)

>  <Rbt.Parameter_File>
/home/malgorzata/Desktop/rDock_2013.1_src/data/scripts/hard_docking.prm

>  <Rbt.Receptor>
cavity.prm

>  <SCORE>
-18.0364

>  <SCORE.INTER>
-10.088

>  <SCORE.INTER.CONST>
1

>  <SCORE.INTER.POLAR>
-0.954084

>  <SCORE.INTER.REPUL>
0

>  <SCORE.INTER.ROT>
9

>  <SCORE.INTER.VDW>
-21.2441

>  <SCORE.INTER.norm>
-0.347863

>  <SCORE.INTRA>
-5.99456

>  <SCORE.INTRA.DIHEDRAL>
-15.1753

>  <SCORE.INTRA.DIHEDRAL.0>
20.1331

>  <SCORE.INTRA.POLAR>
0

>  <SCORE.INTRA.POLAR.0>
0

>  <SCORE.INTRA.REPUL>
0

>  <SCORE.INTRA.REPUL.0>
0

>  <SCORE.INTRA.VDW>
1.59308

>  <SCORE.INTRA.VDW.0>
0.0644272

>  <SCORE.INTRA.norm>
-0.206709

>  <SCORE.RESTR>
0.316744

>  <SCORE.RESTR.CAVITY>
0.316744

>  <SCORE.RESTR.norm>
0.0109222

>  <SCORE.SYSTEM>
-2.27054

>  <SCORE.SYSTEM.CONST>
0

>  <SCORE.SYSTEM.DIHEDRAL>
2.13524

>  <SCORE.SYSTEM.POLAR>
-0.913604

>  <SCORE.SYSTEM.REPUL>
0.747998

>  <SCORE.SYSTEM.VDW>
-3.97189

>  <SCORE.SYSTEM.norm>
-0.0782944

>  <SCORE.heavy>
29

>  <SCORE.norm>
-0.621944

$$$$
4PP.pdb
  rDOCK(R)          3D
libRbt.so/2013.1/901 2013/11/27
 34 36  0  0  0  0  0  0  0  0999 V2000
    2.4859    5.4898   24.9035 C   0  0  0  0  0  0
    3.2761    6.2120   25.5270 O   0  0  0  0  0  0
    1.1363    5.6894   25.0130 O   0  0  0  0  0  0
    2.9308   -2.3305   19.6159 N   0  0  0  0  0  0
    2.1380   -1.2126   19.9420 C   0  0  0  0  0  0
    2.2561   -0.6222   21.2173 C   0  0  0  0  0  0
    3.1610   -1.1477   22.1626 C   0  0  0  0  0  0
    3.9611   -2.2760   21.8275 C   0  0  0  0  0  0
    3.8415   -2.8596   20.5581 C   0  0  0  0  0  0
    3.2489   -0.4926   23.4946 N   0  0  0  0  0  0
    3.0456    4.3745   23.9976 C   0  0  0  0  0  0
    2.2472    3.0792   24.1655 C   0  0  0  0  0  0
    3.1201    1.9367   23.6554 C   0  0  0  0  0  0
    2.3127    0.6436   23.6370 C   0  0  0  0  0  0
   10.2242    4.0075   19.3524 N   0  0  0  0  0  0
    8.8884    2.8630   20.8119 N   0  0  0  0  0  0
    9.0227    3.7115   19.8123 C   0  0  0  0  0  0
    2.9473    5.7409   19.8307 C   0  0  0  0  0  0
    1.7956    5.8597   20.6563 C   0  0  0  0  0  0
    1.8415    5.4148   22.0030 C   0  0  0  0  0  0
    3.0362    4.8469   22.5347 C   0  0  0  0  0  0
    4.1997    4.7226   21.7072 C   0  0  0  0  0  0
    4.1582    5.1706   20.3515 C   0  0  0  0  0  0
    6.5744    5.3727   17.2865 C   0  0  0  0  0  0
    5.4033    5.5030   18.0889 C   0  0  0  0  0  0
    5.4153    5.0489   19.4465 C   0  0  0  0  0  0
    6.5969    4.4713   19.9805 C   0  0  0  0  0  0
    7.7637    4.3421   19.1875 C   0  0  0  0  0  0
    7.7560    4.7913   17.8370 C   0  0  0  0  0  0
    0.8068    6.3712   25.5649 H   0  0  0  0  0  0
    3.8643   -0.7841   24.2055 H   0  0  0  0  0  0
   11.0217    3.5983   19.7595 H   0  0  0  0  0  0
    9.6850    2.4530   21.2200 H   0  0  0  0  0  0
    7.9914    2.6391   21.1505 H   0  0  0  0  0  0
  1  2  2  0  0  0
  1  3  1  0  0  0
  1 11  1  0  0  0
  3 30  1  0  0  0
  4  5  2  0  0  0
  4  9  1  0  0  0
  5  6  1  0  0  0
  6  7  2  0  0  0
  7  8  1  0  0  0
  7 10  1  0  0  0
  8  9  2  0  0  0
 10 14  1  0  0  0
 10 31  1  0  0  0
 11 12  1  0  0  0
 11 21  1  0  0  0
 12 13  1  0  0  0
 13 14  1  0  0  0
 15 17  2  0  0  0
 15 32  1  0  0  0
 16 17  1  0  0  0
 16 33  1  0  0  0
 16 34  1  0  0  0
 17 28  1  0  0  0
 18 19  2  0  0  0
 18 23  1  0  0  0
 19 20  1  0  0  0
 20 21  2  0  0  0
 21 22  1  0  0  0
 22 23  2  0  0  0
 23 26  1  0  0  0
 24 25  2  0  0  0
 24 29  1  0  0  0
 25 26  1  0  0  0
 26 27  2  0  0  0
 27 28  1  0  0  0
 28 29  2  0  0  0
M  END
>  <CHROM.0>
153.01556701,-175.27157890,-60.74922062,172.79596090,-65.07134580,-84.92795887
-39.91051361,-4.35183230,-135.55691785,-28.96537797

>  <CHROM.1>
-0.34816355,136.98343918,1.15553812,-109.56609209,-160.28085591,-49.63801373
-173.02164661,-165.06613888,-154.14267430,0.36164196,4.29570927,3.04301474
21.42177947,2.63126520,-0.71906637,-2.97064940

>  <FORMUL>
      4PP    C23 H24 N4 O2

>  <HET>
 4PP  C 500      29

>  <HETNAM>
     4PP (2S)-(3'-AMIDINO-3-BIPHENYL)-5-(4-PYRIDYLAMINO)PENTANOI
   2 4PP C ACID

>  <Name>
4PP.pdb

>  <RI>
0

>  <Rbt.Current_Directory>
/home/malgorzata/Desktop/rDOCK_IFD/Wyniki/7b_factor_Xa/IFD

>  <Rbt.Executable>
rbdock ($Id: //depot/dev/client3/rdock/2013.1/src/exe/rbdock.cxx#4 $)

>  <Rbt.Library>
libRbt.so (2013.1, Build901 2013/11/27)

>  <Rbt.Parameter_File>
/home/malgorzata/Desktop/rDock_2013.1_src/data/scripts/hard_docking.prm

>  <Rbt.Receptor>
cavity.prm

>  <SCORE>
-27.3276

>  <SCORE.INTER>
-6.31359

>  <SCORE.INTER.CONST>
1

>  <SCORE.INTER.POLAR>
-0.968246

>  <SCORE.INTER.REPUL>
0.02381

>  <SCORE.INTER.ROT>
9

>  <SCORE.INTER.VDW>
-17.5406

>  <SCORE.INTER.norm>
-0.21771

>  <SCORE.INTRA>
-5.25959

>  <SCORE.INTRA.DIHEDRAL>
-11.1731

>  <SCORE.INTRA.DIHEDRAL.0>
20.1331

>  <SCORE.INTRA.POLAR>
0

>  <SCORE.INTRA.POLAR.0>
0

>  <SCORE.INTRA.REPUL>
0

>  <SCORE.INTRA.REPUL.0>
0

>  <SCORE.INTRA.VDW>
0.326969

>  <SCORE.INTRA.VDW.0>
0.0644272

>  <SCORE.INTRA.norm>
-0.181365

>  <SCORE.RESTR>
0

>  <SCORE.RESTR.CAVITY>
0

>  <SCORE.RESTR.norm>
0

>  <SCORE.SYSTEM>
-15.7544

>  <SCORE.SYSTEM.CONST>
0

>  <SCORE.SYSTEM.DIHEDRAL>
4.68906

>  <SCORE.SYSTEM.POLAR>
-4.01637

>  <SCORE.SYSTEM.REPUL>
0.0219151

>  <SCORE.SYSTEM.VDW>
-4.55289

>  <SCORE.SYSTEM.norm>
-0.543256

>  <SCORE.heavy>
29

>  <SCORE.norm>
-0.942332

$$$$
4PP.pdb
  rDOCK(R)          3D
libRbt.so/2013.1/901 2013/11/27
 34 36  0  0  0  0  0  0  0  0999 V2000
    8.4876    3.1863   19.2301 C   0  0  0  0  0  0
    8.3249    2.2038   18.4933 O   0  0  0  0  0  0
    8.9605    4.3631   18.7153 O   0  0  0  0  0  0
    1.2097    5.4557   23.7244 N   0  0  0  0  0  0
    2.1454    5.5779   24.7703 C   0  0  0  0  0  0
    3.5237    5.6070   24.4730 C   0  0  0  0  0  0
    3.9645    5.5128   23.1368 C   0  0  0  0  0  0
    3.0150    5.3914   22.0835 C   0  0  0  0  0  0
    1.6455    5.3638   22.3832 C   0  0  0  0  0  0
    5.4275    5.5459   22.8729 N   0  0  0  0  0  0
    8.1401    3.0656   20.7275 C   0  0  0  0  0  0
    6.7964    3.7318   21.0341 C   0  0  0  0  0  0
    7.0309    5.2389   21.0622 C   0  0  0  0  0  0
    5.7505    5.9491   21.4870 C   0  0  0  0  0  0
    3.5409   -5.5952   19.7718 N   0  0  0  0  0  0
    5.7948   -5.2941   19.5401 N   0  0  0  0  0  0
    4.6224   -4.8618   19.9593 C   0  0  0  0  0  0
    8.1871   -1.1594   21.9050 C   0  0  0  0  0  0
    9.3749   -0.3800   21.9666 C   0  0  0  0  0  0
    9.3454    0.9861   21.5839 C   0  0  0  0  0  0
    8.1310    1.5835   21.1356 C   0  0  0  0  0  0
    6.9309    0.8028   21.0694 C   0  0  0  0  0  0
    6.9560   -0.5723   21.4552 C   0  0  0  0  0  0
    3.2677   -1.7812   21.9107 C   0  0  0  0  0  0
    4.4369   -0.9688   21.9815 C   0  0  0  0  0  0
    5.6600   -1.4273   21.3958 C   0  0  0  0  0  0
    5.6955   -2.6904   20.7490 C   0  0  0  0  0  0
    4.5354   -3.5000   20.6741 C   0  0  0  0  0  0
    3.3175   -3.0486   21.2560 C   0  0  0  0  0  0
    9.1215    5.0914   19.2824 H   0  0  0  0  0  0
    6.1082    5.3233   23.5484 H   0  0  0  0  0  0
    3.6086   -6.4640   19.3137 H   0  0  0  0  0  0
    5.8640   -6.1627   19.0819 H   0  0  0  0  0  0
    6.6013   -4.7485   19.6852 H   0  0  0  0  0  0
  1  2  2  0  0  0
  1  3  1  0  0  0
  1 11  1  0  0  0
  3 30  1  0  0  0
  4  5  2  0  0  0
  4  9  1  0  0  0
  5  6  1  0  0  0
  6  7  2  0  0  0
  7  8  1  0  0  0
  7 10  1  0  0  0
  8  9  2  0  0  0
 10 14  1  0  0  0
 10 31  1  0  0  0
 11 12  1  0  0  0
 11 21  1  0  0  0
 12 13  1  0  0  0
 13 14  1  0  0  0
 15 17  2  0  0  0
 15 32  1  0  0  0
 16 17  1  0  0  0
 16 33  1  0  0  0
 16 34  1  0  0  0
 17 28  1  0  0  0
 18 19  2  0  0  0
 18 23  1  0  0  0
 19 20  1  0  0  0
 20 21  2  0  0  0
 21 22  1  0  0  0
 22 23  2  0  0  0
 23 26  1  0  0  0
 24 25  2  0  0  0
 24 29  1  0  0  0
 25 26  1  0  0  0
 26 27  2  0  0  0
 27 28  1  0  0  0
 28 29  2  0  0  0
M  END
>  <CHROM.0>
149.59279655,-7.83988568,-60.74922062,177.72543948,-56.81477687,-80.01301391
21.42343633,119.38142913,167.94030801,169.52381597

>  <CHROM.1>
-177.05252789,-102.37215050,-158.31634098,-148.12458826,-76.95406185,88.94235979
-174.96568092,63.93549286,-174.39048487,129.91333635,5.69888689,1.35463055
21.34602269,-1.67109416,-0.39664837,-2.96497434

>  <FORMUL>
      4PP    C23 H24 N4 O2

>  <HET>
 4PP  C 500      29

>  <HETNAM>
     4PP (2S)-(3'-AMIDINO-3-BIPHENYL)-5-(4-PYRIDYLAMINO)PENTANOI
   2 4PP C ACID

>  <Name>
4PP.pdb

>  <RI>
0

>  <Rbt.Current_Directory>
/home/malgorzata/Desktop/rDOCK_IFD/Wyniki/7b_factor_Xa/IFD

>  <Rbt.Executable>
rbdock ($Id: //depot/dev/client3/rdock/2013.1/src/exe/rbdock.cxx#4 $)

>  <Rbt.Library>
libRbt.so (2013.1, Build901 2013/11/27)

>  <Rbt.Parameter_File>
/home/malgorzata/Desktop/rDock_2013.1_src/data/scripts/hard_docking.prm

>  <Rbt.Receptor>
cavity.prm

>  <SCORE>
-28.0062

>  <SCORE.INTER>
-10.2723

>  <SCORE.INTER.CONST>
1

>  <SCORE.INTER.POLAR>
-0.742783

>  <SCORE.INTER.REPUL>
0.0449658

>  <SCORE.INTER.ROT>
9

>  <SCORE.INTER.VDW>
-22.3717

>  <SCORE.INTER.norm>
-0.354219

>  <SCORE.INTRA>
-5.4074

>  <SCORE.INTRA.DIHEDRAL>
-10.0426

>  <SCORE.INTRA.DIHEDRAL.0>
20.1331

>  <SCORE.INTRA.POLAR>
0

>  <SCORE.INTRA.POLAR.0>
0

>  <SCORE.INTRA.REPUL>
0

>  <SCORE.INTRA.REPUL.0>
0

>  <SCORE.INTRA.VDW>
-0.386093

>  <SCORE.INTRA.VDW.0>
0.0644272

>  <SCORE.INTRA.norm>
-0.186462

>  <SCORE.RESTR>
1.22286

>  <SCORE.RESTR.CAVITY>
1.22286

>  <SCORE.RESTR.norm>
0.0421677

>  <SCORE.SYSTEM>
-13.5493

>  <SCORE.SYSTEM.CONST>
0

>  <SCORE.SYSTEM.DIHEDRAL>
7.20408

>  <SCORE.SYSTEM.POLAR>
-3.94746

>  <SCORE.SYSTEM.VDW>
-3.73002

>  <SCORE.SYSTEM.norm>
-0.467219

>  <SCORE.heavy>
29

>  <SCORE.norm>
-0.965732

$$$$
4PP.pdb
  rDOCK(R)          3D
libRbt.so/2013.1/901 2013/11/27
 34 36  0  0  0  0  0  0  0  0999 V2000
    7.6645    0.4709   20.8392 C   0  0  0  0  0  0
    8.8105    0.3391   21.2909 O   0  0  0  0  0  0
    6.6470   -0.3205   21.2993 O   0  0  0  0  0  0
    6.5739   -0.5096   11.9710 N   0  0  0  0  0  0
    6.2625    0.8151   12.3354 C   0  0  0  0  0  0
    5.9504    1.1141   13.6778 C   0  0  0  0  0  0
    5.9480    0.0936   14.6509 C   0  0  0  0  0  0
    6.2652   -1.2429   14.2781 C   0  0  0  0  0  0
    6.5759   -1.5359   12.9425 C   0  0  0  0  0  0
    5.6107    0.4568   16.0528 N   0  0  0  0  0  0
    7.4022    1.5436   19.7631 C   0  0  0  0  0  0
    6.3374    1.0741   18.7685 C   0  0  0  0  0  0
    6.9035   -0.1366   18.0329 C   0  0  0  0  0  0
    5.8887   -0.6357   17.0104 C   0  0  0  0  0  0
    3.2973    7.9924   24.8082 N   0  0  0  0  0  0
    2.0318    6.9263   26.3851 N   0  0  0  0  0  0
    2.7894    6.8809   25.3075 C   0  0  0  0  0  0
    6.2736    5.3358   21.6565 C   0  0  0  0  0  0
    7.3226    5.2924   20.6976 C   0  0  0  0  0  0
    7.6767    4.0590   20.0917 C   0  0  0  0  0  0
    6.9877    2.8604   20.4397 C   0  0  0  0  0  0
    5.9308    2.8972   21.4069 C   0  0  0  0  0  0
    5.5702    4.1370   22.0180 C   0  0  0  0  0  0
    2.6117    3.1128   24.3571 C   0  0  0  0  0  0
    3.6615    3.0250   23.3967 C   0  0  0  0  0  0
    4.4208    4.1916   23.0620 C   0  0  0  0  0  0
    4.1187    5.4273   23.6919 C   0  0  0  0  0  0
    3.0779    5.5186   24.6487 C   0  0  0  0  0  0
    2.3198    4.3616   24.9837 C   0  0  0  0  0  0
    6.8154   -0.9633   21.9599 H   0  0  0  0  0  0
    5.2418    1.3310   16.3155 H   0  0  0  0  0  0
    3.1060    8.8574   25.2377 H   0  0  0  0  0  0
    1.8398    7.7906   26.8157 H   0  0  0  0  0  0
    1.6579    6.0961   26.7594 H   0  0  0  0  0  0
  1  2  2  0  0  0
  1  3  1  0  0  0
  1 11  1  0  0  0
  3 30  1  0  0  0
  4  5  2  0  0  0
  4  9  1  0  0  0
  5  6  1  0  0  0
  6  7  2  0  0  0
  7  8  1  0  0  0
  7 10  1  0  0  0
  8  9  2  0  0  0
 10 14  1  0  0  0
 10 31  1  0  0  0
 11 12  1  0  0  0
 11 21  1  0  0  0
 12 13  1  0  0  0
 13 14  1  0  0  0
 15 17  2  0  0  0
 15 32  1  0  0  0
 16 17  1  0  0  0
 16 33  1  0  0  0
 16 34  1  0  0  0
 17 28  1  0  0  0
 18 19  2  0  0  0
 18 23  1  0  0  0
 19 20  1  0  0  0
 20 21  2  0  0  0
 21 22  1  0  0  0
 22 23  2  0  0  0
 23 26  1  0  0  0
 24 25  2  0  0  0
 24 29  1  0  0  0
 25 26  1  0  0  0
 26 27  2  0  0  0
 27 28  1  0  0  0
 28 29  2  0  0  0
M  END
>  <CHROM.0>
152.48273666,-19.80165283,-60.74922062,173.68363056,-174.51097959,-174.50689476
-40.02249838,-138.64177580,-140.33756647,151.38532474

>  <CHROM.1>
0.16601022,145.63384700,-169.20456385,120.09347833,-64.34759260,128.30368245
-179.16372266,59.70536118,13.83897348,177.09835303,5.55992641,2.50074810
20.01315737,-1.17143901,-0.87165008,1.35369123

>  <FORMUL>
      4PP    C23 H24 N4 O2

>  <HET>
 4PP  C 500      29

>  <HETNAM>
     4PP (2S)-(3'-AMIDINO-3-BIPHENYL)-5-(4-PYRIDYLAMINO)PENTANOI
   2 4PP C ACID

>  <Name>
4PP.pdb

>  <RI>
0

>  <Rbt.Current_Directory>
/home/malgorzata/Desktop/rDOCK_IFD/Wyniki/7b_factor_Xa/IFD

>  <Rbt.Executable>
rbdock ($Id: //depot/dev/client3/rdock/2013.1/src/exe/rbdock.cxx#4 $)

>  <Rbt.Library>
libRbt.so (2013.1, Build901 2013/11/27)

>  <Rbt.Parameter_File>
/home/malgorzata/Desktop/rDock_2013.1_src/data/scripts/hard_docking.prm

>  <Rbt.Receptor>
cavity.prm

>  <SCORE>
-27.1179

>  <SCORE.INTER>
-7.4709

>  <SCORE.INTER.CONST>
1

>  <SCORE.INTER.POLAR>
-0.503031

>  <SCORE.INTER.REPUL>
0

>  <SCORE.INTER.ROT>
9

>  <SCORE.INTER.VDW>
-20.1606

>  <SCORE.INTER.norm>
-0.257617

>  <SCORE.INTRA>
-7.10935

>  <SCORE.INTRA.DIHEDRAL>
-14.3034

>  <SCORE.INTRA.DIHEDRAL.0>
20.1331

>  <SCORE.INTRA.POLAR>
0

>  <SCORE.INTRA.POLAR.0>
0

>  <SCORE.INTRA.REPUL>
0

>  <SCORE.INTRA.REPUL.0>
0

>  <SCORE.INTRA.VDW>
0.0423558

>  <SCORE.INTRA.VDW.0>
0.0644272

>  <SCORE.INTRA.norm>
-0.24515

>  <SCORE.RESTR>
0

>  <SCORE.RESTR.CAVITY>
0

>  <SCORE.RESTR.norm>
0

>  <SCORE.SYSTEM>
-12.5376

>  <SCORE.SYSTEM.CONST>
0

>  <SCORE.SYSTEM.DIHEDRAL>
4.74218

>  <SCORE.SYSTEM.POLAR>
-3.18221

>  <SCORE.SYSTEM.REPUL>
0.0219665

>  <SCORE.SYSTEM.VDW>
-4.19903

>  <SCORE.SYSTEM.norm>
-0.432332

>  <SCORE.heavy>
29

>  <SCORE.norm>
-0.935099

$$$$
4PP.pdb
  rDOCK(R)          3D
libRbt.so/2013.1/901 2013/11/27
 34 36  0  0  0  0  0  0  0  0999 V2000
    6.5763    7.2975   23.4756 C   0  0  0  0  0  0
    6.1715    6.5290   24.3589 O   0  0  0  0  0  0
    7.5171    8.2479   23.7668 O   0  0  0  0  0  0
   10.3234    1.8444   20.6837 N   0  0  0  0  0  0
    9.1937    1.1462   21.1536 C   0  0  0  0  0  0
    7.9041    1.6641   20.9133 C   0  0  0  0  0  0
    7.7446    2.8748   20.2083 C   0  0  0  0  0  0
    8.8891    3.5755   19.7339 C   0  0  0  0  0  0
   10.1695    3.0568   19.9740 C   0  0  0  0  0  0
    6.3655    3.3822   19.9811 N   0  0  0  0  0  0
    6.0134    7.1593   22.0467 C   0  0  0  0  0  0
    6.1188    5.7141   21.5530 C   0  0  0  0  0  0
    5.5438    5.6720   20.1406 C   0  0  0  0  0  0
    6.3428    4.6902   19.2909 C   0  0  0  0  0  0
   -1.3112   10.8116   25.4987 N   0  0  0  0  0  0
   -2.3049    9.4351   27.0292 N   0  0  0  0  0  0
   -1.3979    9.6367   26.0944 C   0  0  0  0  0  0
    1.8707    8.5929   21.8973 C   0  0  0  0  0  0
    2.7514    8.8166   20.8036 C   0  0  0  0  0  0
    4.0888    8.3463   20.8645 C   0  0  0  0  0  0
    4.5571    7.6511   22.0177 C   0  0  0  0  0  0
    3.6749    7.4241   23.1241 C   0  0  0  0  0  0
    2.3275    7.8946   23.0662 C   0  0  0  0  0  0
    0.4504    6.2139   26.0536 C   0  0  0  0  0  0
    1.3552    6.4066   24.9691 C   0  0  0  0  0  0
    1.3588    7.6477   24.2557 C   0  0  0  0  0  0
    0.4579    8.6764   24.6371 C   0  0  0  0  0  0
   -0.4413    8.4901   25.7158 C   0  0  0  0  0  0
   -0.4490    7.2574   26.4271 C   0  0  0  0  0  0
    7.8195    8.8287   23.0966 H   0  0  0  0  0  0
    5.5543    2.8991   20.2602 H   0  0  0  0  0  0
   -1.9280   11.5370   25.7488 H   0  0  0  0  0  0
   -2.9223   10.1596   27.2804 H   0  0  0  0  0  0
   -2.3651    8.5600   27.4762 H   0  0  0  0  0  0
  1  2  2  0  0  0
  1  3  1  0  0  0
  1 11  1  0  0  0
  3 30  1  0  0  0
  4  5  2  0  0  0
  4  9  1  0  0  0
  5  6  1  0  0  0
  6  7  2  0  0  0
  7  8  1  0  0  0
  7 10  1  0  0  0
  8  9  2  0  0  0
 10 14  1  0  0  0
 10 31  1  0  0  0
 11 12  1  0  0  0
 11 21  1  0  0  0
 12 13  1  0  0  0
 13 14  1  0  0  0
 15 17  2  0  0  0
 15 32  1  0  0  0
 16 17  1  0  0  0
 16 33  1  0  0  0
 16 34  1  0  0  0
 17 28  1  0  0  0
 18 19  2  0  0  0
 18 23  1  0  0  0
 19 20  1  0  0  0
 20 21  2  0  0  0
 21 22  1  0  0  0
 22 23  2  0  0  0
 23 26  1  0  0  0
 24 25  2  0  0  0
 24 29  1  0  0  0
 25 26  1  0  0  0
 26 27  2  0  0  0
 27 28  1  0  0  0
 28 29  2  0  0  0
M  END
>  <CHROM.0>
148.90494090,-168.20655706,-60.74922062,172.58935621,-177.28482782,-84.24533777
-35.20405937,-1.03963397,131.66326986,-28.66142063

>  <CHROM.1>
-179.86471900,-51.55850781,177.12896152,-124.70033026,-179.93811731,143.59339354
143.59255382,54.37608057,-5.43974768,139.91658222,4.23120351,6.43388443,22.76809460
-0.21628472,0.67200620,-0.50387838

>  <FORMUL>
      4PP    C23 H24 N4 O2

>  <HET>
 4PP  C 500      29

>  <HETNAM>
     4PP (2S)-(3'-AMIDINO-3-BIPHENYL)-5-(4-PYRIDYLAMINO)PENTANOI
   2 4PP C ACID

>  <Name>
4PP.pdb

>  <RI>
0

>  <Rbt.Current_Directory>
/home/malgorzata/Desktop/rDOCK_IFD/Wyniki/7b_factor_Xa/IFD

>  <Rbt.Executable>
rbdock ($Id: //depot/dev/client3/rdock/2013.1/src/exe/rbdock.cxx#4 $)

>  <Rbt.Library>
libRbt.so (2013.1, Build901 2013/11/27)

>  <Rbt.Parameter_File>
/home/malgorzata/Desktop/rDock_2013.1_src/data/scripts/hard_docking.prm

>  <Rbt.Receptor>
cavity.prm

>  <SCORE>
-28.7883

>  <SCORE.INTER>
-9.11291

>  <SCORE.INTER.CONST>
1

>  <SCORE.INTER.POLAR>
-0.72111

>  <SCORE.INTER.REPUL>
0.0600174

>  <SCORE.INTER.ROT>
9

>  <SCORE.INTER.VDW>
-21.3612

>  <SCORE.INTER.norm>
-0.314238

>  <SCORE.INTRA>
-3.81902

>  <SCORE.INTRA.DIHEDRAL>
-8.34241

>  <SCORE.INTRA.DIHEDRAL.0>
20.1331

>  <SCORE.INTRA.POLAR>
0

>  <SCORE.INTRA.POLAR.0>
0

>  <SCORE.INTRA.REPUL>
0

>  <SCORE.INTRA.REPUL.0>
0

>  <SCORE.INTRA.VDW>
0.352187

>  <SCORE.INTRA.VDW.0>
0.0644272

>  <SCORE.INTRA.norm>
-0.13169

>  <SCORE.RESTR>
0.202612

>  <SCORE.RESTR.CAVITY>
0.202612

>  <SCORE.RESTR.norm>
0.00698662

>  <SCORE.SYSTEM>
-16.059

>  <SCORE.SYSTEM.CONST>
0

>  <SCORE.SYSTEM.DIHEDRAL>
4.64341

>  <SCORE.SYSTEM.POLAR>
-4.1238

>  <SCORE.SYSTEM.REPUL>
0.0197551

>  <SCORE.SYSTEM.VDW>
-4.45853

>  <SCORE.SYSTEM.norm>
-0.553758

>  <SCORE.heavy>
29

>  <SCORE.norm>
-0.9927

$$$$
