REMARK  10 active torsions:
REMARK  status: ('A' for Active; 'I' for Inactive)
REMARK    1  A    between atoms: C1C_1  and  C1_13 
REMARK    2  A    between atoms: C4P_8  and  N1_11 
REMARK    3  A    between atoms: N1_11  and  C4_16 
REMARK    4  A    between atoms: C1_13  and  C2_14 
REMARK    5  A    between atoms: C1_13  and  C4D_27 
REMARK    6  A    between atoms: C2_14  and  C3_15 
REMARK    7  A    between atoms: C3_15  and  C4_16 
REMARK    8  A    between atoms: N1A_17  and  C1A_23 
REMARK    9  A    between atoms: C1A_23  and  C5B_34 
REMARK   10  A    between atoms: C6D_29  and  C3B_32 
ROOT
HETATM    1  C1D 4PP C 500       0.718  16.784  14.071  1.00 12.29     0.012 A 
HETATM    2  C2D 4PP C 500      -0.485  16.274  14.632  1.00 13.77     0.001 A 
HETATM    3  C3D 4PP C 500      -0.780  16.503  16.001  1.00 14.22     0.008 A 
HETATM    4  C4D 4PP C 500       0.124  17.241  16.820  1.00 13.69    -0.043 A 
HETATM    5  C5D 4PP C 500       1.339  17.756  16.261  1.00 13.12     0.020 A 
HETATM    6  C6D 4PP C 500       1.639  17.529  14.883  1.00 11.05    -0.025 A 
ENDROOT
BRANCH   4   7
HETATM    7  C1  4PP C 500      -0.230  17.466  18.299  1.00 14.14     0.120 C 
BRANCH   7   8
HETATM    8  C1C 4PP C 500       0.520  16.439  19.171  1.00 16.45     0.181 C 
HETATM    9  O2  4PP C 500       0.048  15.301  19.301  1.00 16.98    -0.647 OA
HETATM   10  O3  4PP C 500       1.696  16.772  19.787  1.00 14.33    -0.647 OA
ENDBRANCH   7   8
BRANCH   7  11
HETATM   11  C2  4PP C 500       0.096  18.897  18.734  1.00 11.71     0.022 C 
BRANCH  11  12
HETATM   12  C3  4PP C 500      -1.227  19.594  19.036  1.00 13.55     0.021 C 
BRANCH  12  13
HETATM   13  C4  4PP C 500      -1.018  21.104  19.056  1.00 13.06     0.120 C 
BRANCH  13  14
HETATM   14  N1  4PP C 500      -1.902  21.714  18.039  1.00 11.92    -0.390 N 
ATOM     15  H1  4PP C 500      -2.522  21.176  17.434  1.00  0.00     0.159 HD
BRANCH  14  16
HETATM   16  C4P 4PP C 500      -1.790  23.196  17.993  1.00 10.26     0.030 A 
HETATM   17  C3P 4PP C 500      -2.583  23.898  17.062  1.00 10.63     0.046 A 
HETATM   18  C2P 4PP C 500      -2.508  25.304  16.982  1.00 10.60     0.089 A 
HETATM   19  N1P 4PP C 500      -1.637  26.005  17.839  1.00 11.75    -0.375 N 
HETATM   20  C6P 4PP C 500      -0.842  25.307  18.776  1.00 11.13     0.089 A 
ATOM     21  H1P 4PP C 500      -1.580  27.022  17.783  1.00  0.00     0.164 HD
HETATM   22  C5P 4PP C 500      -0.913  23.909  18.858  1.00  9.10     0.046 A 
ENDBRANCH  14  16
ENDBRANCH  13  14
ENDBRANCH  12  13
ENDBRANCH  11  12
ENDBRANCH   7  11
ENDBRANCH   4   7
BRANCH   6  23
HETATM   23  C3B 4PP C 500       2.949  18.089  14.263  1.00  8.69    -0.025 A 
HETATM   24  C2B 4PP C 500       4.147  18.212  15.037  1.00  6.81     0.012 A 
HETATM   25  C1B 4PP C 500       5.330  18.733  14.436  1.00  6.12     0.002 A 
HETATM   26  C6B 4PP C 500       5.319  19.130  13.065  1.00  4.68     0.015 A 
HETATM   27  C5B 4PP C 500       4.126  19.005  12.299  1.00  5.27     0.008 A 
HETATM   28  C4B 4PP C 500       2.952  18.489  12.901  1.00  7.64     0.027 A 
BRANCH  27  29
HETATM   29  C1A 4PP C 500       4.081  19.423  10.817  1.00  4.15     0.102 C 
HETATM   30  N2A 4PP C 500       3.174  18.887  10.025  1.00  2.00    -0.385 N 
ATOM     31 2H2A 4PP C 500       3.144  19.164   9.044  1.00  0.00     0.157 HD
ATOM     32 1H2A 4PP C 500       2.516  18.200  10.393  1.00  0.00     0.157 HD
BRANCH  29  33
HETATM   33  N1A 4PP C 500       4.933  20.312  10.341  1.00  3.52    -0.385 N 
ATOM     34 2H1A 4PP C 500       4.903  20.589   9.360  1.00  0.00     0.157 HD
ATOM     35 1H1A 4PP C 500       5.635  20.727  10.954  1.00  0.00     0.157 HD
ENDBRANCH  29  33
ENDBRANCH  27  29
ENDBRANCH   6  23
TORSDOF 10
