REMARK  10 active torsions:
REMARK  status: ('A' for Active; 'I' for Inactive)
REMARK    1  A    between atoms: C1C_1  and  C1_13 
REMARK    2  A    between atoms: C4P_8  and  N1_11 
REMARK    3  A    between atoms: N1_11  and  C4_16 
REMARK    4  A    between atoms: C1_13  and  C2_14 
REMARK    5  A    between atoms: C1_13  and  C4D_27 
REMARK    6  A    between atoms: C2_14  and  C3_15 
REMARK    7  A    between atoms: C3_15  and  C4_16 
REMARK    8  A    between atoms: N1A_17  and  C1A_23 
REMARK    9  A    between atoms: C1A_23  and  C5B_34 
REMARK   10  A    between atoms: C6D_29  and  C3B_32 
ROOT
HETATM    1  C1D 4PP C 500       5.414   2.063  21.302  1.00 12.29     0.012 A 
HETATM    2  C2D 4PP C 500       4.695   2.862  22.233  1.00 13.77     0.001 A 
HETATM    3  C3D 4PP C 500       5.050   4.224  22.418  1.00 14.22     0.008 A 
HETATM    4  C4D 4PP C 500       6.124   4.797  21.676  1.00 13.69    -0.043 A 
HETATM    5  C5D 4PP C 500       6.853   3.996  20.738  1.00 13.12     0.020 A 
HETATM    6  C6D 4PP C 500       6.499   2.626  20.547  1.00 11.05    -0.025 A 
ENDROOT
BRANCH   4   7
HETATM    7  C1  4PP C 500       6.479   6.275  21.907  1.00 14.14     0.120 C 
BRANCH   7   8
HETATM    8  C1C 4PP C 500       5.935   7.124  20.740  1.00 16.45     0.181 C 
HETATM    9  O2  4PP C 500       5.687   6.572  19.658  1.00 16.98    -0.647 OA
HETATM   10  O3  4PP C 500       5.718   8.466  20.895  1.00 14.33    -0.647 OA
ENDBRANCH   7   8
BRANCH   7  11
HETATM   11  C2  4PP C 500       5.933   6.772  23.248  1.00 11.71     0.022 C 
BRANCH  11  12
HETATM   12  C3  4PP C 500       7.087   7.440  23.990  1.00 13.55     0.021 C 
BRANCH  12  13
HETATM   13  C4  4PP C 500       6.700   8.867  24.361  1.00 13.06     0.120 C 
BRANCH  13  14
HETATM   14  N1  4PP C 500       5.408   9.186  23.716  1.00 11.92    -0.390 N 
ATOM     15  H1  4PP C 500       5.317   9.454  22.736  1.00  0.00     0.159 HD
BRANCH  14  16
HETATM   16  C4P 4PP C 500       4.255   9.076  24.648  1.00 10.26     0.030 A 
HETATM   17  C3P 4PP C 500       4.203   9.950  25.753  1.00 10.63     0.046 A 
HETATM   18  C2P 4PP C 500       3.129   9.880  26.665  1.00 10.60     0.089 A 
HETATM   19  N1P 4PP C 500       2.107   8.931  26.465  1.00 11.75    -0.375 N 
HETATM   20  C6P 4PP C 500       2.152   8.054  25.358  1.00 11.13     0.089 A 
ATOM     21  H1P 4PP C 500       1.329   8.878  27.124  1.00  0.00     0.164 HD
HETATM   22  C5P 4PP C 500       3.219   8.120  24.450  1.00  9.10     0.046 A 
ENDBRANCH  14  16
ENDBRANCH  13  14
ENDBRANCH  12  13
ENDBRANCH  11  12
ENDBRANCH   7  11
ENDBRANCH   4   7
BRANCH   6  23
HETATM   23  C3B 4PP C 500       7.276   1.749  19.527  1.00  8.69    -0.025 A 
HETATM   24  C2B 4PP C 500       8.705   1.674  19.544  1.00  6.81     0.012 A 
HETATM   25  C1B 4PP C 500       9.386   0.862  18.591  1.00  6.12     0.002 A 
HETATM   26  C6B 4PP C 500       8.642   0.124  17.621  1.00  4.68     0.015 A 
HETATM   27  C5B 4PP C 500       7.221   0.201  17.608  1.00  5.27     0.008 A 
HETATM   28  C4B 4PP C 500       6.549   1.011  18.556  1.00  7.64     0.027 A 
BRANCH  27  29
HETATM   29  C1A 4PP C 500       6.389  -0.584  16.576  1.00  4.15     0.102 C 
HETATM   30  N2A 4PP C 500       6.949  -0.944  15.439  1.00  2.00    -0.385 N 
ATOM     31 2H2A 4PP C 500       6.398  -1.464  14.756  1.00  0.00     0.157 HD
ATOM     32 1H2A 4PP C 500       7.920  -0.699  15.247  1.00  0.00     0.157 HD
BRANCH  29  33
HETATM   33  N1A 4PP C 500       5.131  -0.900  16.824  1.00  3.52    -0.385 N 
ATOM     34 2H1A 4PP C 500       4.484  -1.098  16.062  1.00  0.00     0.157 HD
ATOM     35 1H1A 4PP C 500       4.795  -0.945  17.787  1.00  0.00     0.157 HD
ENDBRANCH  29  33
ENDBRANCH  27  29
ENDBRANCH   6  23
TORSDOF 10
