REMARK  10 active torsions:
REMARK  status: ('A' for Active; 'I' for Inactive)
REMARK    1  A    between atoms: C1C_1  and  C1_13 
REMARK    2  A    between atoms: C4P_8  and  N1_11 
REMARK    3  A    between atoms: N1_11  and  C4_16 
REMARK    4  A    between atoms: C1_13  and  C2_14 
REMARK    5  A    between atoms: C1_13  and  C4D_27 
REMARK    6  A    between atoms: C2_14  and  C3_15 
REMARK    7  A    between atoms: C3_15  and  C4_16 
REMARK    8  A    between atoms: N1A_17  and  C1A_23 
REMARK    9  A    between atoms: C1A_23  and  C5B_34 
REMARK   10  A    between atoms: C6D_29  and  C3B_32 
ROOT
HETATM    1  C1D 4PP C 500       5.816   7.823  24.541  1.00 12.29     0.012 A 
HETATM    2  C2D 4PP C 500       4.539   7.628  23.947  1.00 13.77     0.001 A 
HETATM    3  C3D 4PP C 500       4.398   7.688  22.536  1.00 14.22     0.008 A 
HETATM    4  C4D 4PP C 500       5.530   7.945  21.709  1.00 13.69    -0.043 A 
HETATM    5  C5D 4PP C 500       6.820   8.144  22.302  1.00 13.12     0.020 A 
HETATM    6  C6D 4PP C 500       6.966   8.083  23.721  1.00 11.05    -0.025 A 
ENDROOT
BRANCH   4   7
HETATM    7  C1  4PP C 500       5.337   8.004  20.185  1.00 14.14     0.120 C 
BRANCH   7   8
HETATM    8  C1C 4PP C 500       6.382   8.956  19.569  1.00 16.45     0.181 C 
HETATM    9  O2  4PP C 500       6.491  10.104  20.022  1.00 16.98    -0.647 OA
HETATM   10  O3  4PP C 500       7.187   8.541  18.543  1.00 14.33    -0.647 OA
ENDBRANCH   7   8
BRANCH   7  11
HETATM   11  C2  4PP C 500       5.430   6.610  19.561  1.00 11.71     0.022 C 
BRANCH  11  12
HETATM   12  C3  4PP C 500       5.866   5.646  20.660  1.00 13.55     0.021 C 
BRANCH  12  13
HETATM   13  C4  4PP C 500       7.387   5.544  20.679  1.00 13.06     0.120 C 
BRANCH  13  14
HETATM   14  N1  4PP C 500       7.759   4.124  20.862  1.00 11.92    -0.390 N 
ATOM     15  H1  4PP C 500       8.723   3.797  20.922  1.00  0.00     0.159 HD
BRANCH  14  16
HETATM   16  C4P 4PP C 500       6.578   3.225  20.948  1.00 10.26     0.030 A 
HETATM   17  C3P 4PP C 500       6.160   2.556  19.779  1.00 10.63     0.046 A 
HETATM   18  C2P 4PP C 500       5.043   1.695  19.814  1.00 10.60     0.089 A 
HETATM   19  N1P 4PP C 500       4.348   1.505  21.025  1.00 11.75    -0.375 N 
HETATM   20  C6P 4PP C 500       4.764   2.171  22.200  1.00 11.13     0.089 A 
ATOM     21  H1P 4PP C 500       3.539   0.884  21.053  1.00  0.00     0.164 HD
HETATM   22  C5P 4PP C 500       5.873   3.028  22.169  1.00  9.10     0.046 A 
ENDBRANCH  14  16
ENDBRANCH  13  14
ENDBRANCH  12  13
ENDBRANCH  11  12
ENDBRANCH   7  11
ENDBRANCH   4   7
BRANCH   6  23
HETATM   23  C3B 4PP C 500       8.360   8.290  24.376  1.00  8.69    -0.025 A 
HETATM   24  C2B 4PP C 500       9.333   9.166  23.797  1.00  6.81     0.012 A 
HETATM   25  C1B 4PP C 500      10.603   9.329  24.423  1.00  6.12     0.002 A 
HETATM   26  C6B 4PP C 500      10.903   8.620  25.625  1.00  4.68     0.015 A 
HETATM   27  C5B 4PP C 500       9.932   7.750  26.198  1.00  5.27     0.008 A 
HETATM   28  C4B 4PP C 500       8.672   7.590  25.570  1.00  7.64     0.027 A 
BRANCH  27  29
HETATM   29  C1A 4PP C 500      10.223   6.972  27.494  1.00  4.15     0.102 C 
HETATM   30  N2A 4PP C 500       9.254   6.281  28.061  1.00  2.00    -0.385 N 
ATOM     31 2H2A 4PP C 500       9.447   5.765  28.919  1.00  0.00     0.157 HD
ATOM     32 1H2A 4PP C 500       8.323   6.270  27.644  1.00  0.00     0.157 HD
BRANCH  29  33
HETATM   33  N1A 4PP C 500      11.428   6.986  28.033  1.00  3.52    -0.385 N 
ATOM     34 2H1A 4PP C 500      12.187   7.511  27.598  1.00  0.00     0.157 HD
ATOM     35 1H1A 4PP C 500      11.611   6.465  28.891  1.00  0.00     0.157 HD
ENDBRANCH  29  33
ENDBRANCH  27  29
ENDBRANCH   6  23
TORSDOF 10
