REMARK  10 active torsions:
REMARK  status: ('A' for Active; 'I' for Inactive)
REMARK    1  A    between atoms: C1C_1  and  C1_13 
REMARK    2  A    between atoms: C4P_8  and  N1_11 
REMARK    3  A    between atoms: N1_11  and  C4_16 
REMARK    4  A    between atoms: C1_13  and  C2_14 
REMARK    5  A    between atoms: C1_13  and  C4D_27 
REMARK    6  A    between atoms: C2_14  and  C3_15 
REMARK    7  A    between atoms: C3_15  and  C4_16 
REMARK    8  A    between atoms: N1A_17  and  C1A_23 
REMARK    9  A    between atoms: C1A_23  and  C5B_34 
REMARK   10  A    between atoms: C6D_29  and  C3B_32 
ROOT
HETATM    1  C1D 4PP C 500       5.507   1.182  20.914  1.00 12.29     0.012 A 
HETATM    2  C2D 4PP C 500       4.573   1.825  21.772  1.00 13.77     0.001 A 
HETATM    3  C3D 4PP C 500       4.635   3.231  21.957  1.00 14.22     0.008 A 
HETATM    4  C4D 4PP C 500       5.630   4.004  21.289  1.00 13.69    -0.043 A 
HETATM    5  C5D 4PP C 500       6.575   3.360  20.425  1.00 13.12     0.020 A 
HETATM    6  C6D 4PP C 500       6.516   1.946  20.235  1.00 11.05    -0.025 A 
ENDROOT
BRANCH   4   7
HETATM    7  C1  4PP C 500       5.665   5.523  21.518  1.00 14.14     0.120 C 
BRANCH   7   8
HETATM    8  C1C 4PP C 500       4.680   5.899  22.642  1.00 16.45     0.181 C 
HETATM    9  O2  4PP C 500       3.625   6.479  22.349  1.00 16.98    -0.647 OA
HETATM   10  O3  4PP C 500       4.958   5.591  23.947  1.00 14.33    -0.647 OA
ENDBRANCH   7   8
BRANCH   7  11
HETATM   11  C2  4PP C 500       7.082   6.000  21.848  1.00 11.71     0.022 C 
BRANCH  11  12
HETATM   12  C3  4PP C 500       7.484   7.011  20.778  1.00 13.55     0.021 C 
BRANCH  12  13
HETATM   13  C4  4PP C 500       8.794   7.682  21.173  1.00 13.06     0.120 C 
BRANCH  13  14
HETATM   14  N1  4PP C 500       8.482   8.930  21.903  1.00 11.92    -0.390 N 
ATOM     15  H1  4PP C 500       7.975   9.713  21.490  1.00  0.00     0.159 HD
BRANCH  14  16
HETATM   16  C4P 4PP C 500       8.987   8.922  23.301  1.00 10.26     0.030 A 
HETATM   17  C3P 4PP C 500       8.249   8.219  24.275  1.00 10.63     0.046 A 
HETATM   18  C2P 4PP C 500       8.689   8.185  25.614  1.00 10.60     0.089 A 
HETATM   19  N1P 4PP C 500       9.873   8.858  25.975  1.00 11.75    -0.375 N 
HETATM   20  C6P 4PP C 500      10.619   9.562  25.003  1.00 11.13     0.089 A 
ATOM     21  H1P 4PP C 500      10.194   8.836  26.943  1.00  0.00     0.164 HD
HETATM   22  C5P 4PP C 500      10.184   9.598  23.670  1.00  9.10     0.046 A 
ENDBRANCH  14  16
ENDBRANCH  13  14
ENDBRANCH  12  13
ENDBRANCH  11  12
ENDBRANCH   7  11
ENDBRANCH   4   7
BRANCH   6  23
HETATM   23  C3B 4PP C 500       7.530   1.238  19.294  1.00  8.69    -0.025 A 
HETATM   24  C2B 4PP C 500       8.939   1.299  19.536  1.00  6.81     0.012 A 
HETATM   25  C1B 4PP C 500       9.841   0.640  18.651  1.00  6.12     0.002 A 
HETATM   26  C6B 4PP C 500       9.338  -0.080  17.526  1.00  4.68     0.015 A 
HETATM   27  C5B 4PP C 500       7.935  -0.139  17.289  1.00  5.27     0.008 A 
HETATM   28  C4B 4PP C 500       7.043   0.519  18.171  1.00  7.64     0.027 A 
BRANCH  27  29
HETATM   29  C1A 4PP C 500       7.360  -0.909  16.085  1.00  4.15     0.102 C 
HETATM   30  N2A 4PP C 500       6.068  -0.837  15.834  1.00  2.00    -0.385 N 
ATOM     31 2H2A 4PP C 500       5.688  -1.347  15.037  1.00  0.00     0.157 HD
ATOM     32 1H2A 4PP C 500       5.461  -0.282  16.436  1.00  0.00     0.157 HD
BRANCH  29  33
HETATM   33  N1A 4PP C 500       8.147  -1.628  15.307  1.00  3.52    -0.385 N 
ATOM     34 2H1A 4PP C 500       7.954  -2.616  15.141  1.00  0.00     0.157 HD
ATOM     35 1H1A 4PP C 500       8.961  -1.200  14.866  1.00  0.00     0.157 HD
ENDBRANCH  29  33
ENDBRANCH  27  29
ENDBRANCH   6  23
TORSDOF 10
