REMARK  10 active torsions:
REMARK  status: ('A' for Active; 'I' for Inactive)
REMARK    1  A    between atoms: C1C_1  and  C1_13 
REMARK    2  A    between atoms: C4P_8  and  N1_11 
REMARK    3  A    between atoms: N1_11  and  C4_16 
REMARK    4  A    between atoms: C1_13  and  C2_14 
REMARK    5  A    between atoms: C1_13  and  C4D_27 
REMARK    6  A    between atoms: C2_14  and  C3_15 
REMARK    7  A    between atoms: C3_15  and  C4_16 
REMARK    8  A    between atoms: N1A_17  and  C1A_23 
REMARK    9  A    between atoms: C1A_23  and  C5B_34 
REMARK   10  A    between atoms: C6D_29  and  C3B_32 
ROOT
HETATM    1  C1D 4PP C 500       7.617   9.572  22.331  1.00 12.29     0.012 A 
HETATM    2  C2D 4PP C 500       6.538   9.653  21.407  1.00 13.77     0.001 A 
HETATM    3  C3D 4PP C 500       5.655   8.554  21.253  1.00 14.22     0.008 A 
HETATM    4  C4D 4PP C 500       5.842   7.365  22.017  1.00 13.69    -0.043 A 
HETATM    5  C5D 4PP C 500       6.928   7.276  22.948  1.00 13.12     0.020 A 
HETATM    6  C6D 4PP C 500       7.819   8.381  23.108  1.00 11.05    -0.025 A 
ENDROOT
BRANCH   4   7
HETATM    7  C1  4PP C 500       4.865   6.195  21.819  1.00 14.14     0.120 C 
BRANCH   7   8
HETATM    8  C1C 4PP C 500       4.825   5.334  23.098  1.00 16.45     0.181 C 
HETATM    9  O2  4PP C 500       4.694   5.893  24.196  1.00 16.98    -0.647 OA
HETATM   10  O3  4PP C 500       4.923   3.971  23.025  1.00 14.33    -0.647 OA
ENDBRANCH   7   8
BRANCH   7  11
HETATM   11  C2  4PP C 500       3.466   6.698  21.453  1.00 11.71     0.022 C 
BRANCH  11  12
HETATM   12  C3  4PP C 500       2.996   7.603  22.588  1.00 13.55     0.021 C 
BRANCH  12  13
HETATM   13  C4  4PP C 500       1.829   8.460  22.110  1.00 13.06     0.120 C 
BRANCH  13  14
HETATM   14  N1  4PP C 500       1.170   9.056  23.293  1.00 11.92    -0.390 N 
ATOM     15  H1  4PP C 500       0.257   9.511  23.261  1.00  0.00     0.159 HD
BRANCH  14  16
HETATM   16  C4P 4PP C 500       1.979   8.921  24.533  1.00 10.26     0.030 A 
HETATM   17  C3P 4PP C 500       1.631   7.910  25.452  1.00 10.63     0.046 A 
HETATM   18  C2P 4PP C 500       2.369   7.746  26.642  1.00 10.60     0.089 A 
HETATM   19  N1P 4PP C 500       3.459   8.599  26.908  1.00 11.75    -0.375 N 
HETATM   20  C6P 4PP C 500       3.814   9.612  25.990  1.00 11.13     0.089 A 
ATOM     21  H1P 4PP C 500       3.994   8.483  27.769  1.00  0.00     0.164 HD
HETATM   22  C5P 4PP C 500       3.081   9.778  24.806  1.00  9.10     0.046 A 
ENDBRANCH  14  16
ENDBRANCH  13  14
ENDBRANCH  12  13
ENDBRANCH  11  12
ENDBRANCH   7  11
ENDBRANCH   4   7
BRANCH   6  23
HETATM   23  C3B 4PP C 500       8.995   8.300  24.120  1.00  8.69    -0.025 A 
HETATM   24  C2B 4PP C 500      10.246   8.945  23.861  1.00  6.81     0.012 A 
HETATM   25  C1B 4PP C 500      11.305   8.847  24.811  1.00  6.12     0.002 A 
HETATM   26  C6B 4PP C 500      11.116   8.107  26.017  1.00  4.68     0.015 A 
HETATM   27  C5B 4PP C 500       9.870   7.469  26.270  1.00  5.27     0.008 A 
HETATM   28  C4B 4PP C 500       8.821   7.567  25.323  1.00  7.64     0.027 A 
BRANCH  27  29
HETATM   29  C1A 4PP C 500       9.633   6.664  27.563  1.00  4.15     0.102 C 
HETATM   30  N2A 4PP C 500      10.366   5.594  27.798  1.00  2.00    -0.385 N 
ATOM     31 2H2A 4PP C 500      10.209   5.062  28.653  1.00  0.00     0.157 HD
ATOM     32 1H2A 4PP C 500      11.076   5.304  27.126  1.00  0.00     0.157 HD
BRANCH  29  33
HETATM   33  N1A 4PP C 500       8.713   7.040  28.432  1.00  3.52    -0.385 N 
ATOM     34 2H1A 4PP C 500       7.721   6.930  28.222  1.00  0.00     0.157 HD
ATOM     35 1H1A 4PP C 500       8.990   7.452  29.324  1.00  0.00     0.157 HD
ENDBRANCH  29  33
ENDBRANCH  27  29
ENDBRANCH   6  23
TORSDOF 10
