REMARK  10 active torsions:
REMARK  status: ('A' for Active; 'I' for Inactive)
REMARK    1  A    between atoms: C1C_1  and  C1_13 
REMARK    2  A    between atoms: C4P_8  and  N1_11 
REMARK    3  A    between atoms: N1_11  and  C4_16 
REMARK    4  A    between atoms: C1_13  and  C2_14 
REMARK    5  A    between atoms: C1_13  and  C4D_27 
REMARK    6  A    between atoms: C2_14  and  C3_15 
REMARK    7  A    between atoms: C3_15  and  C4_16 
REMARK    8  A    between atoms: N1A_17  and  C1A_23 
REMARK    9  A    between atoms: C1A_23  and  C5B_34 
REMARK   10  A    between atoms: C6D_29  and  C3B_32 
ROOT
HETATM    1  C1D 4PP C 500       6.296   0.886  16.146  1.00 12.29     0.012 A 
HETATM    2  C2D 4PP C 500       5.499   2.026  16.440  1.00 13.77     0.001 A 
HETATM    3  C3D 4PP C 500       5.587   2.642  17.716  1.00 14.22     0.008 A 
HETATM    4  C4D 4PP C 500       6.469   2.122  18.708  1.00 13.69    -0.043 A 
HETATM    5  C5D 4PP C 500       7.274   0.972  18.419  1.00 13.12     0.020 A 
HETATM    6  C6D 4PP C 500       7.189   0.351  17.135  1.00 11.05    -0.025 A 
ENDROOT
BRANCH   4   7
HETATM    7  C1  4PP C 500       6.534   2.816  20.078  1.00 14.14     0.120 C 
BRANCH   7   8
HETATM    8  C1C 4PP C 500       6.016   1.855  21.167  1.00 16.45     0.181 C 
HETATM    9  O2  4PP C 500       6.688   1.692  22.196  1.00 16.98    -0.647 OA
HETATM   10  O3  4PP C 500       4.827   1.196  21.009  1.00 14.33    -0.647 OA
ENDBRANCH   7   8
BRANCH   7  11
HETATM   11  C2  4PP C 500       7.956   3.286  20.393  1.00 11.71     0.022 C 
BRANCH  11  12
HETATM   12  C3  4PP C 500       7.842   4.561  21.223  1.00 13.55     0.021 C 
BRANCH  12  13
HETATM   13  C4  4PP C 500       6.447   5.155  21.060  1.00 13.06     0.120 C 
BRANCH  13  14
HETATM   14  N1  4PP C 500       6.561   6.422  20.305  1.00 11.92    -0.390 N 
ATOM     15  H1  4PP C 500       6.074   6.602  19.428  1.00  0.00     0.159 HD
BRANCH  14  16
HETATM   16  C4P 4PP C 500       7.464   7.404  20.962  1.00 10.26     0.030 A 
HETATM   17  C3P 4PP C 500       8.315   8.179  20.147  1.00 10.63     0.046 A 
HETATM   18  C2P 4PP C 500       9.189   9.122  20.727  1.00 10.60     0.089 A 
HETATM   19  N1P 4PP C 500       9.207   9.286  22.126  1.00 11.75    -0.375 N 
HETATM   20  C6P 4PP C 500       8.355   8.514  22.947  1.00 11.13     0.089 A 
ATOM     21  H1P 4PP C 500       9.839   9.967  22.548  1.00  0.00     0.164 HD
HETATM   22  C5P 4PP C 500       7.485   7.575  22.374  1.00  9.10     0.046 A 
ENDBRANCH  14  16
ENDBRANCH  13  14
ENDBRANCH  12  13
ENDBRANCH  11  12
ENDBRANCH   7  11
ENDBRANCH   4   7
BRANCH   6  23
HETATM   23  C3B 4PP C 500       8.062  -0.892  16.807  1.00  8.69    -0.025 A 
HETATM   24  C2B 4PP C 500       7.526  -2.013  16.097  1.00  6.81     0.012 A 
HETATM   25  C1B 4PP C 500       8.355  -3.138  15.816  1.00  6.12     0.002 A 
HETATM   26  C6B 4PP C 500       9.718  -3.144  16.240  1.00  4.68     0.015 A 
HETATM   27  C5B 4PP C 500      10.248  -2.026  16.944  1.00  5.27     0.008 A 
HETATM   28  C4B 4PP C 500       9.419  -0.912  17.224  1.00  7.64     0.027 A 
BRANCH  27  29
HETATM   29  C1A 4PP C 500      11.714  -2.001  17.415  1.00  4.15     0.102 C 
HETATM   30  N2A 4PP C 500      12.599  -2.762  16.803  1.00  2.00    -0.385 N 
ATOM     31 2H2A 4PP C 500      13.570  -2.745  17.114  1.00  0.00     0.157 HD
ATOM     32 1H2A 4PP C 500      12.310  -3.363  16.031  1.00  0.00     0.157 HD
BRANCH  29  33
HETATM   33  N1A 4PP C 500      12.088  -1.223  18.414  1.00  3.52    -0.385 N 
ATOM     34 2H1A 4PP C 500      12.327  -1.620  19.322  1.00  0.00     0.157 HD
ATOM     35 1H1A 4PP C 500      12.137  -0.212  18.285  1.00  0.00     0.157 HD
ENDBRANCH  29  33
ENDBRANCH  27  29
ENDBRANCH   6  23
TORSDOF 10
