REMARK  10 active torsions:
REMARK  status: ('A' for Active; 'I' for Inactive)
REMARK    1  A    between atoms: C1C_1  and  C1_13 
REMARK    2  A    between atoms: C4P_8  and  N1_11 
REMARK    3  A    between atoms: N1_11  and  C4_16 
REMARK    4  A    between atoms: C1_13  and  C2_14 
REMARK    5  A    between atoms: C1_13  and  C4D_27 
REMARK    6  A    between atoms: C2_14  and  C3_15 
REMARK    7  A    between atoms: C3_15  and  C4_16 
REMARK    8  A    between atoms: N1A_17  and  C1A_23 
REMARK    9  A    between atoms: C1A_23  and  C5B_34 
REMARK   10  A    between atoms: C6D_29  and  C3B_32 
ROOT
HETATM    1  C1D 4PP C 500       7.398   8.877  22.138  1.00 12.29     0.012 A 
HETATM    2  C2D 4PP C 500       6.146   8.883  21.464  1.00 13.77     0.001 A 
HETATM    3  C3D 4PP C 500       4.968   8.500  22.157  1.00 14.22     0.008 A 
HETATM    4  C4D 4PP C 500       5.032   8.108  23.526  1.00 13.69    -0.043 A 
HETATM    5  C5D 4PP C 500       6.291   8.098  24.210  1.00 13.12     0.020 A 
HETATM    6  C6D 4PP C 500       7.479   8.484  23.517  1.00 11.05    -0.025 A 
ENDROOT
BRANCH   4   7
HETATM    7  C1  4PP C 500       3.734   7.698  24.241  1.00 14.14     0.120 C 
BRANCH   7   8
HETATM    8  C1C 4PP C 500       2.967   8.961  24.682  1.00 16.45     0.181 C 
HETATM    9  O2  4PP C 500       1.850   9.186  24.198  1.00 16.98    -0.647 OA
HETATM   10  O3  4PP C 500       3.505   9.819  25.603  1.00 14.33    -0.647 OA
ENDBRANCH   7   8
BRANCH   7  11
HETATM   11  C2  4PP C 500       2.865   6.813  23.344  1.00 11.71     0.022 C 
BRANCH  11  12
HETATM   12  C3  4PP C 500       3.068   5.370  23.793  1.00 13.55     0.021 C 
BRANCH  12  13
HETATM   13  C4  4PP C 500       4.417   4.863  23.295  1.00 13.06     0.120 C 
BRANCH  13  14
HETATM   14  N1  4PP C 500       4.185   3.963  22.145  1.00 11.92    -0.390 N 
ATOM     15  H1  4PP C 500       3.261   3.642  21.857  1.00  0.00     0.159 HD
BRANCH  14  16
HETATM   16  C4P 4PP C 500       5.443   3.576  21.454  1.00 10.26     0.030 A 
HETATM   17  C3P 4PP C 500       6.460   4.544  21.324  1.00 10.63     0.046 A 
HETATM   18  C2P 4PP C 500       7.669   4.222  20.674  1.00 10.60     0.089 A 
HETATM   19  N1P 4PP C 500       7.857   2.925  20.155  1.00 11.75    -0.375 N 
HETATM   20  C6P 4PP C 500       6.843   1.950  20.285  1.00 11.13     0.089 A 
ATOM     21  H1P 4PP C 500       8.731   2.690  19.684  1.00  0.00     0.164 HD
HETATM   22  C5P 4PP C 500       5.639   2.267  20.930  1.00  9.10     0.046 A 
ENDBRANCH  14  16
ENDBRANCH  13  14
ENDBRANCH  12  13
ENDBRANCH  11  12
ENDBRANCH   7  11
ENDBRANCH   4   7
BRANCH   6  23
HETATM   23  C3B 4PP C 500       8.849   8.486  24.249  1.00  8.69    -0.025 A 
HETATM   24  C2B 4PP C 500       9.975   9.197  23.724  1.00  6.81     0.012 A 
HETATM   25  C1B 4PP C 500      11.218   9.174  24.421  1.00  6.12     0.002 A 
HETATM   26  C6B 4PP C 500      11.338   8.444  25.642  1.00  4.68     0.015 A 
HETATM   27  C5B 4PP C 500      10.216   7.739  26.161  1.00  5.27     0.008 A 
HETATM   28  C4B 4PP C 500       8.984   7.762  25.463  1.00  7.64     0.027 A 
BRANCH  27  29
HETATM   29  C1A 4PP C 500      10.312   6.942  27.476  1.00  4.15     0.102 C 
HETATM   30  N2A 4PP C 500      11.489   6.789  28.051  1.00  2.00    -0.385 N 
ATOM     31 2H2A 4PP C 500      11.552   6.262  28.921  1.00  0.00     0.157 HD
ATOM     32 1H2A 4PP C 500      12.323   7.190  27.622  1.00  0.00     0.157 HD
BRANCH  29  33
HETATM   33  N1A 4PP C 500       9.233   6.423  28.031  1.00  3.52    -0.385 N 
ATOM     34 2H1A 4PP C 500       8.309   6.598  27.635  1.00  0.00     0.157 HD
ATOM     35 1H1A 4PP C 500       9.315   5.844  28.866  1.00  0.00     0.157 HD
ENDBRANCH  29  33
ENDBRANCH  27  29
ENDBRANCH   6  23
TORSDOF 10
