REMARK  10 active torsions:
REMARK  status: ('A' for Active; 'I' for Inactive)
REMARK    1  A    between atoms: C1C_1  and  C1_13 
REMARK    2  A    between atoms: C4P_8  and  N1_11 
REMARK    3  A    between atoms: N1_11  and  C4_16 
REMARK    4  A    between atoms: C1_13  and  C2_14 
REMARK    5  A    between atoms: C1_13  and  C4D_27 
REMARK    6  A    between atoms: C2_14  and  C3_15 
REMARK    7  A    between atoms: C3_15  and  C4_16 
REMARK    8  A    between atoms: N1A_17  and  C1A_23 
REMARK    9  A    between atoms: C1A_23  and  C5B_34 
REMARK   10  A    between atoms: C6D_29  and  C3B_32 
ROOT
HETATM    1  C1D 4PP C 500       5.282   4.006  17.933  1.00 12.29     0.012 A 
HETATM    2  C2D 4PP C 500       4.437   5.135  18.117  1.00 13.77     0.001 A 
HETATM    3  C3D 4PP C 500       4.208   5.642  19.422  1.00 14.22     0.008 A 
HETATM    4  C4D 4PP C 500       4.819   5.026  20.553  1.00 13.69    -0.043 A 
HETATM    5  C5D 4PP C 500       5.670   3.886  20.375  1.00 13.12     0.020 A 
HETATM    6  C6D 4PP C 500       5.904   3.373  19.062  1.00 11.05    -0.025 A 
ENDROOT
BRANCH   4   7
HETATM    7  C1  4PP C 500       4.544   5.603  21.951  1.00 14.14     0.120 C 
BRANCH   7   8
HETATM    8  C1C 4PP C 500       3.887   4.524  22.835  1.00 16.45     0.181 C 
HETATM    9  O2  4PP C 500       4.580   3.927  23.671  1.00 16.98    -0.647 OA
HETATM   10  O3  4PP C 500       2.556   4.233  22.709  1.00 14.33    -0.647 OA
ENDBRANCH   7   8
BRANCH   7  11
HETATM   11  C2  4PP C 500       5.830   6.130  22.594  1.00 11.71     0.022 C 
BRANCH  11  12
HETATM   12  C3  4PP C 500       6.630   6.833  21.502  1.00 13.55     0.021 C 
BRANCH  12  13
HETATM   13  C4  4PP C 500       6.037   8.212  21.238  1.00 13.06     0.120 C 
BRANCH  13  14
HETATM   14  N1  4PP C 500       5.843   8.896  22.535  1.00 11.92    -0.390 N 
ATOM     15  H1  4PP C 500       4.957   9.306  22.831  1.00  0.00     0.159 HD
BRANCH  14  16
HETATM   16  C4P 4PP C 500       7.078   8.921  23.363  1.00 10.26     0.030 A 
HETATM   17  C3P 4PP C 500       7.008   8.428  24.683  1.00 10.63     0.046 A 
HETATM   18  C2P 4PP C 500       8.154   8.434  25.505  1.00 10.60     0.089 A 
HETATM   19  N1P 4PP C 500       9.371   8.934  25.000  1.00 11.75    -0.375 N 
HETATM   20  C6P 4PP C 500       9.447   9.426  23.678  1.00 11.13     0.089 A 
ATOM     21  H1P 4PP C 500      10.201   8.940  25.592  1.00  0.00     0.164 HD
HETATM   22  C5P 4PP C 500       8.310   9.423  22.858  1.00  9.10     0.046 A 
ENDBRANCH  14  16
ENDBRANCH  13  14
ENDBRANCH  12  13
ENDBRANCH  11  12
ENDBRANCH   7  11
ENDBRANCH   4   7
BRANCH   6  23
HETATM   23  C3B 4PP C 500       6.831   2.144  18.855  1.00  8.69    -0.025 A 
HETATM   24  C2B 4PP C 500       7.890   1.846  19.770  1.00  6.81     0.012 A 
HETATM   25  C1B 4PP C 500       8.723   0.711  19.547  1.00  6.12     0.002 A 
HETATM   26  C6B 4PP C 500       8.500  -0.127  18.412  1.00  4.68     0.015 A 
HETATM   27  C5B 4PP C 500       7.445   0.173  17.505  1.00  5.27     0.008 A 
HETATM   28  C4B 4PP C 500       6.621   1.303  17.730  1.00  7.64     0.027 A 
BRANCH  27  29
HETATM   29  C1A 4PP C 500       7.176  -0.711  16.273  1.00  4.15     0.102 C 
HETATM   30  N2A 4PP C 500       5.981  -0.695  15.718  1.00  2.00    -0.385 N 
ATOM     31 2H2A 4PP C 500       5.803  -1.280  14.902  1.00  0.00     0.157 HD
ATOM     32 1H2A 4PP C 500       5.244  -0.106  16.108  1.00  0.00     0.157 HD
BRANCH  29  33
HETATM   33  N1A 4PP C 500       8.129  -1.473  15.769  1.00  3.52    -0.385 N 
ATOM     34 2H1A 4PP C 500       8.957  -1.058  15.341  1.00  0.00     0.157 HD
ATOM     35 1H1A 4PP C 500       8.042  -2.489  15.799  1.00  0.00     0.157 HD
ENDBRANCH  29  33
ENDBRANCH  27  29
ENDBRANCH   6  23
TORSDOF 10
