REMARK  10 active torsions:
REMARK  status: ('A' for Active; 'I' for Inactive)
REMARK    1  A    between atoms: C1C_1  and  C1_13 
REMARK    2  A    between atoms: C4P_8  and  N1_11 
REMARK    3  A    between atoms: N1_11  and  C4_16 
REMARK    4  A    between atoms: C1_13  and  C2_14 
REMARK    5  A    between atoms: C1_13  and  C4D_27 
REMARK    6  A    between atoms: C2_14  and  C3_15 
REMARK    7  A    between atoms: C3_15  and  C4_16 
REMARK    8  A    between atoms: N1A_17  and  C1A_23 
REMARK    9  A    between atoms: C1A_23  and  C5B_34 
REMARK   10  A    between atoms: C6D_29  and  C3B_32 
ROOT
HETATM    1  C1D 4PP C 500       7.996   9.772  21.633  1.00 12.29     0.012 A 
HETATM    2  C2D 4PP C 500       7.149   9.646  20.499  1.00 13.77     0.001 A 
HETATM    3  C3D 4PP C 500       6.573   8.388  20.182  1.00 14.22     0.008 A 
HETATM    4  C4D 4PP C 500       6.841   7.247  20.995  1.00 13.69    -0.043 A 
HETATM    5  C5D 4PP C 500       7.696   7.368  22.139  1.00 13.12     0.020 A 
HETATM    6  C6D 4PP C 500       8.276   8.633  22.462  1.00 11.05    -0.025 A 
ENDROOT
BRANCH   4   7
HETATM    7  C1  4PP C 500       6.200   5.901  20.618  1.00 14.14     0.120 C 
BRANCH   7   8
HETATM    8  C1C 4PP C 500       6.629   4.824  21.635  1.00 16.45     0.181 C 
HETATM    9  O2  4PP C 500       5.756   4.162  22.213  1.00 16.98    -0.647 OA
HETATM   10  O3  4PP C 500       7.953   4.592  21.890  1.00 14.33    -0.647 OA
ENDBRANCH   7   8
BRANCH   7  11
HETATM   11  C2  4PP C 500       4.675   6.015  20.549  1.00 11.71     0.022 C 
BRANCH  11  12
HETATM   12  C3  4PP C 500       4.239   6.974  21.652  1.00 13.55     0.021 C 
BRANCH  12  13
HETATM   13  C4  4PP C 500       4.038   6.204  22.952  1.00 13.06     0.120 C 
BRANCH  13  14
HETATM   14  N1  4PP C 500       2.850   6.750  23.643  1.00 11.92    -0.390 N 
ATOM     15  H1  4PP C 500       1.911   6.366  23.541  1.00  0.00     0.159 HD
BRANCH  14  16
HETATM   16  C4P 4PP C 500       3.171   7.921  24.502  1.00 10.26     0.030 A 
HETATM   17  C3P 4PP C 500       4.527   8.226  24.736  1.00 10.63     0.046 A 
HETATM   18  C2P 4PP C 500       4.879   9.326  25.546  1.00 10.60     0.089 A 
HETATM   19  N1P 4PP C 500       3.866  10.120  26.120  1.00 11.75    -0.375 N 
HETATM   20  C6P 4PP C 500       2.505   9.820  25.886  1.00 11.13     0.089 A 
ATOM     21  H1P 4PP C 500       4.117  10.916  26.707  1.00  0.00     0.164 HD
HETATM   22  C5P 4PP C 500       2.152   8.727  25.082  1.00  9.10     0.046 A 
ENDBRANCH  14  16
ENDBRANCH  13  14
ENDBRANCH  12  13
ENDBRANCH  11  12
ENDBRANCH   7  11
ENDBRANCH   4   7
BRANCH   6  23
HETATM   23  C3B 4PP C 500       9.198   8.779  23.704  1.00  8.69    -0.025 A 
HETATM   24  C2B 4PP C 500      10.123   9.865  23.822  1.00  6.81     0.012 A 
HETATM   25  C1B 4PP C 500      10.956   9.965  24.974  1.00  6.12     0.002 A 
HETATM   26  C6B 4PP C 500      10.866   8.985  26.008  1.00  4.68     0.015 A 
HETATM   27  C5B 4PP C 500       9.944   7.908  25.887  1.00  5.27     0.008 A 
HETATM   28  C4B 4PP C 500       9.120   7.811  24.739  1.00  7.64     0.027 A 
BRANCH  27  29
HETATM   29  C1A 4PP C 500       9.821   6.835  26.985  1.00  4.15     0.102 C 
HETATM   30  N2A 4PP C 500      10.841   6.621  27.792  1.00  2.00    -0.385 N 
ATOM     31 2H2A 4PP C 500      10.759   5.910  28.519  1.00  0.00     0.157 HD
ATOM     32 1H2A 4PP C 500      11.701   7.158  27.682  1.00  0.00     0.157 HD
BRANCH  29  33
HETATM   33  N1A 4PP C 500       8.708   6.139  27.126  1.00  3.52    -0.385 N 
ATOM     34 2H1A 4PP C 500       8.363   5.891  28.053  1.00  0.00     0.157 HD
ATOM     35 1H1A 4PP C 500       8.185   5.838  26.304  1.00  0.00     0.157 HD
ENDBRANCH  29  33
ENDBRANCH  27  29
ENDBRANCH   6  23
TORSDOF 10
