REMARK  10 active torsions:
REMARK  status: ('A' for Active; 'I' for Inactive)
REMARK    1  A    between atoms: C1C_1  and  C1_13 
REMARK    2  A    between atoms: C4P_8  and  N1_11 
REMARK    3  A    between atoms: N1_11  and  C4_16 
REMARK    4  A    between atoms: C1_13  and  C2_14 
REMARK    5  A    between atoms: C1_13  and  C4D_27 
REMARK    6  A    between atoms: C2_14  and  C3_15 
REMARK    7  A    between atoms: C3_15  and  C4_16 
REMARK    8  A    between atoms: N1A_17  and  C1A_23 
REMARK    9  A    between atoms: C1A_23  and  C5B_34 
REMARK   10  A    between atoms: C6D_29  and  C3B_32 
ROOT
HETATM    1  C1D 4PP C 500       7.379   9.657  22.356  1.00 12.29     0.012 A 
HETATM    2  C2D 4PP C 500       6.320   9.599  21.408  1.00 13.77     0.001 A 
HETATM    3  C3D 4PP C 500       5.880   8.344  20.916  1.00 14.22     0.008 A 
HETATM    4  C4D 4PP C 500       6.494   7.137  21.364  1.00 13.69    -0.043 A 
HETATM    5  C5D 4PP C 500       7.562   7.189  22.317  1.00 13.12     0.020 A 
HETATM    6  C6D 4PP C 500       8.008   8.451  22.817  1.00 11.05    -0.025 A 
ENDROOT
BRANCH   4   7
HETATM    7  C1  4PP C 500       5.990   5.797  20.805  1.00 14.14     0.120 C 
BRANCH   7   8
HETATM    8  C1C 4PP C 500       6.603   4.637  21.615  1.00 16.45     0.181 C 
HETATM    9  O2  4PP C 500       5.861   3.741  22.040  1.00 16.98    -0.647 OA
HETATM   10  O3  4PP C 500       7.950   4.589  21.855  1.00 14.33    -0.647 OA
ENDBRANCH   7   8
BRANCH   7  11
HETATM   11  C2  4PP C 500       4.461   5.730  20.823  1.00 11.71     0.022 C 
BRANCH  11  12
HETATM   12  C3  4PP C 500       3.992   6.377  22.123  1.00 13.55     0.021 C 
BRANCH  12  13
HETATM   13  C4  4PP C 500       2.953   5.485  22.794  1.00 13.06     0.120 C 
BRANCH  13  14
HETATM   14  N1  4PP C 500       3.036   5.687  24.257  1.00 11.92    -0.390 N 
ATOM     15  H1  4PP C 500       2.663   5.028  24.940  1.00  0.00     0.159 HD
BRANCH  14  16
HETATM   16  C4P 4PP C 500       3.721   6.954  24.626  1.00 10.26     0.030 A 
HETATM   17  C3P 4PP C 500       5.123   6.938  24.771  1.00 10.63     0.046 A 
HETATM   18  C2P 4PP C 500       5.815   8.117  25.121  1.00 10.60     0.089 A 
HETATM   19  N1P 4PP C 500       5.097   9.311  25.325  1.00 11.75    -0.375 N 
HETATM   20  C6P 4PP C 500       3.691   9.334  25.178  1.00 11.13     0.089 A 
ATOM     21  H1P 4PP C 500       5.594  10.165  25.579  1.00  0.00     0.164 HD
HETATM   22  C5P 4PP C 500       3.000   8.164  24.830  1.00  9.10     0.046 A 
ENDBRANCH  14  16
ENDBRANCH  13  14
ENDBRANCH  12  13
ENDBRANCH  11  12
ENDBRANCH   7  11
ENDBRANCH   4   7
BRANCH   6  23
HETATM   23  C3B 4PP C 500       9.160   8.521  23.857  1.00  8.69    -0.025 A 
HETATM   24  C2B 4PP C 500      10.292   9.375  23.660  1.00  6.81     0.012 A 
HETATM   25  C1B 4PP C 500      11.332   9.411  24.634  1.00  6.12     0.002 A 
HETATM   26  C6B 4PP C 500      11.244   8.597  25.803  1.00  4.68     0.015 A 
HETATM   27  C5B 4PP C 500      10.116   7.749  25.995  1.00  5.27     0.008 A 
HETATM   28  C4B 4PP C 500       9.086   7.715  25.024  1.00  7.64     0.027 A 
BRANCH  27  29
HETATM   29  C1A 4PP C 500       9.990   6.859  27.246  1.00  4.15     0.102 C 
HETATM   30  N2A 4PP C 500      11.080   6.509  27.899  1.00  2.00    -0.385 N 
ATOM     31 2H2A 4PP C 500      10.997   5.920  28.727  1.00  0.00     0.157 HD
ATOM     32 1H2A 4PP C 500      11.994   6.822  27.572  1.00  0.00     0.157 HD
BRANCH  29  33
HETATM   33  N1A 4PP C 500       8.807   6.455  27.669  1.00  3.52    -0.385 N 
ATOM     34 2H1A 4PP C 500       7.965   6.654  27.130  1.00  0.00     0.157 HD
ATOM     35 1H1A 4PP C 500       8.726   5.940  28.546  1.00  0.00     0.157 HD
ENDBRANCH  29  33
ENDBRANCH  27  29
ENDBRANCH   6  23
TORSDOF 10
