REMARK  6 active torsions:
REMARK  status: ('A' for Active; 'I' for Inactive)
REMARK    1  A    between atoms: C1_1  and  S_7 
REMARK    2  A    between atoms: S_7  and  C7_8 
REMARK    3  A    between atoms: C12_9  and  CF_10 
REMARK    4  A    between atoms: N8_15  and  CA_20 
REMARK    5  A    between atoms: CA_20  and  OB_21 
REMARK    6  A    between atoms: OB_21  and  CC_22 
ROOT
HETATM    1  C7  612 A 999      -1.416 -35.630  24.575  1.00 18.06     0.090 A 
HETATM    2  C12 612 A 999      -0.679 -36.642  23.976  1.00 14.61     0.047 A 
HETATM    3  C11 612 A 999      -0.495 -36.640  22.534  1.00 18.65     0.258 A 
HETATM    4  O11 612 A 999       0.185 -37.463  21.935  1.00 19.51    -0.267 OA
HETATM    5  N8  612 A 999      -2.006 -34.614  23.799  1.00 19.76    -0.271 N 
HETATM    6  C9  612 A 999      -1.872 -34.577  22.397  1.00 23.47     0.332 A 
HETATM    7  O9  612 A 999      -2.398 -33.709  21.702  1.00 22.87    -0.246 OA
HETATM    8  N10 612 A 999      -1.110 -35.594  21.841  1.00 16.93    -0.275 N 
ATOM      9  H10 612 A 999      -0.986 -35.577  20.829  1.00  0.00     0.173 HD
ENDROOT
BRANCH   1  10
HETATM   10  S   612 A 999      -1.587 -35.531  26.424  1.00 32.26    -0.106 SA
BRANCH  10  11
HETATM   11  C1  612 A 999      -0.205 -34.530  27.078  1.00 32.95     0.054 C 
HETATM   12  C2  612 A 999       0.747 -34.343  25.905  1.00 34.65     0.015 C 
HETATM   13  C3  612 A 999       1.866 -33.401  26.264  1.00 27.76     0.001 C 
HETATM   14  C4  612 A 999       1.314 -32.056  26.726  1.00 29.08     0.000 C 
HETATM   15  C5  612 A 999       0.374 -32.248  27.909  1.00 28.74     0.001 C 
HETATM   16  C6  612 A 999      -0.753 -33.184  27.532  1.00 30.82     0.015 C 
ENDBRANCH  10  11
ENDBRANCH   1  10
BRANCH   2  17
HETATM   17  CF  612 A 999      -0.197 -37.914  24.698  1.00 10.07     0.019 C 
HETATM   18  CH  612 A 999      -1.258 -38.614  25.515  1.00 14.61     0.015 C 
HETATM   19  CI  612 A 999       1.105 -37.750  25.404  1.00 17.14     0.015 C 
ENDBRANCH   2  17
BRANCH   5  20
HETATM   20  CA  612 A 999      -2.847 -33.548  24.399  1.00 21.69     0.304 C 
BRANCH  20  21
HETATM   21  OB  612 A 999      -4.230 -33.751  24.129  1.00 29.12    -0.372 OA
BRANCH  21  22
HETATM   22  CC  612 A 999      -5.009 -33.745  25.329  1.00 25.28     0.165 C 
HETATM   23  CD  612 A 999      -4.164 -33.348  26.514  1.00 18.82     0.033 C 
ENDBRANCH  21  22
ENDBRANCH  20  21
ENDBRANCH   5  20
TORSDOF 6
