REMARK  6 active torsions:
REMARK  status: ('A' for Active; 'I' for Inactive)
REMARK    1  A    between atoms: C1_1  and  S_7 
REMARK    2  A    between atoms: S_7  and  C7_8 
REMARK    3  A    between atoms: C12_9  and  CF_10 
REMARK    4  A    between atoms: N8_15  and  CA_20 
REMARK    5  A    between atoms: CA_20  and  OB_21 
REMARK    6  A    between atoms: OB_21  and  CC_22 
ROOT
HETATM    1  C7  612 A 999      -1.750 -35.377  24.423  1.00 18.06     0.090 A 
HETATM    2  C12 612 A 999      -0.902 -36.394  24.006  1.00 14.61     0.047 A 
HETATM    3  C11 612 A 999      -0.512 -36.476  22.609  1.00 18.65     0.258 A 
HETATM    4  O11 612 A 999       0.273 -37.308  22.171  1.00 19.51    -0.267 OA
HETATM    5  N8  612 A 999      -2.255 -34.439  23.503  1.00 19.76    -0.271 N 
HETATM    6  C9  612 A 999      -1.921 -34.486  22.135  1.00 23.47     0.332 A 
HETATM    7  O9  612 A 999      -2.369 -33.688  21.314  1.00 22.87    -0.246 OA
HETATM    8  N10 612 A 999      -1.054 -35.504  21.765  1.00 16.93    -0.275 N 
ATOM      9  H10 612 A 999      -0.787 -35.547  20.781  1.00  0.00     0.173 HD
ENDROOT
BRANCH   1  10
HETATM   10  S   612 A 999      -2.189 -35.167  26.218  1.00 32.26    -0.106 SA
BRANCH  10  11
HETATM   11  C1  612 A 999      -1.182 -33.803  26.902  1.00 32.95     0.054 C 
HETATM   12  C2  612 A 999      -1.930 -33.332  28.140  1.00 34.65     0.015 C 
HETATM   13  C3  612 A 999      -1.130 -32.303  28.894  1.00 27.76     0.001 C 
HETATM   14  C4  612 A 999       0.240 -32.856  29.275  1.00 29.08     0.000 C 
HETATM   15  C5  612 A 999       0.990 -33.311  28.030  1.00 28.74     0.001 C 
HETATM   16  C6  612 A 999       0.183 -34.355  27.289  1.00 30.82     0.015 C 
ENDBRANCH  10  11
ENDBRANCH   1  10
BRANCH   2  17
HETATM   17  CF  612 A 999      -0.488 -37.596  24.876  1.00 10.07     0.019 C 
HETATM   18  CH  612 A 999      -1.642 -38.358  25.486  1.00 14.61     0.015 C 
HETATM   19  CI  612 A 999       0.616 -37.297  25.831  1.00 17.14     0.015 C 
ENDBRANCH   2  17
BRANCH   5  20
HETATM   20  CA  612 A 999      -3.208 -33.373  23.902  1.00 21.69     0.304 C 
BRANCH  20  21
HETATM   21  OB  612 A 999      -4.371 -33.910  24.522  1.00 29.12    -0.372 OA
BRANCH  21  22
HETATM   22  CC  612 A 999      -4.871 -33.044  25.546  1.00 25.28     0.165 C 
HETATM   23  CD  612 A 999      -5.706 -33.814  26.539  1.00 18.82     0.033 C 
ENDBRANCH  21  22
ENDBRANCH  20  21
ENDBRANCH   5  20
TORSDOF 6
