REMARK  6 active torsions:
REMARK  status: ('A' for Active; 'I' for Inactive)
REMARK    1  A    between atoms: C1_1  and  S_7 
REMARK    2  A    between atoms: S_7  and  C7_8 
REMARK    3  A    between atoms: C12_9  and  CF_10 
REMARK    4  A    between atoms: N8_15  and  CA_20 
REMARK    5  A    between atoms: CA_20  and  OB_21 
REMARK    6  A    between atoms: OB_21  and  CC_22 
ROOT
HETATM    1  C7  612 A 999      -1.670 -35.430  24.470  1.00 18.06     0.090 A 
HETATM    2  C12 612 A 999      -0.870 -36.443  23.960  1.00 14.61     0.047 A 
HETATM    3  C11 612 A 999      -0.587 -36.487  22.535  1.00 18.65     0.258 A 
HETATM    4  O11 612 A 999       0.150 -37.313  22.014  1.00 19.51    -0.267 OA
HETATM    5  N8  612 A 999      -2.229 -34.458  23.619  1.00 19.76    -0.271 N 
HETATM    6  C9  612 A 999      -2.000 -34.466  22.228  1.00 23.47     0.332 A 
HETATM    7  O9  612 A 999      -2.497 -33.638  21.469  1.00 22.87    -0.246 OA
HETATM    8  N10 612 A 999      -1.178 -35.482  21.764  1.00 16.93    -0.275 N 
ATOM      9  H10 612 A 999      -0.986 -35.498  20.762  1.00  0.00     0.173 HD
ENDROOT
BRANCH   1  10
HETATM   10  S   612 A 999      -1.969 -35.270  26.298  1.00 32.26    -0.106 SA
BRANCH  10  11
HETATM   11  C1  612 A 999      -0.919 -33.918  26.938  1.00 32.95     0.054 C 
HETATM   12  C2  612 A 999      -1.606 -33.442  28.210  1.00 34.65     0.015 C 
HETATM   13  C3  612 A 999      -0.762 -32.423  28.929  1.00 27.76     0.001 C 
HETATM   14  C4  612 A 999       0.618 -32.990  29.246  1.00 29.08     0.000 C 
HETATM   15  C5  612 A 999       1.307 -33.450  27.968  1.00 28.74     0.001 C 
HETATM   16  C6  612 A 999       0.457 -34.484  27.262  1.00 30.82     0.015 C 
ENDBRANCH  10  11
ENDBRANCH   1  10
BRANCH   2  17
HETATM   17  CF  612 A 999      -0.409 -37.676  24.759  1.00 10.07     0.019 C 
HETATM   18  CH  612 A 999      -1.500 -38.354  25.554  1.00 14.61     0.015 C 
HETATM   19  CI  612 A 999       0.855 -37.464  25.519  1.00 17.14     0.015 C 
ENDBRANCH   2  17
BRANCH   5  20
HETATM   20  CA  612 A 999      -3.134 -33.393  24.121  1.00 21.69     0.304 C 
BRANCH  20  21
HETATM   21  OB  612 A 999      -4.504 -33.741  23.952  1.00 29.12    -0.372 OA
BRANCH  21  22
HETATM   22  CC  612 A 999      -5.150 -33.967  25.209  1.00 25.28     0.165 C 
HETATM   23  CD  612 A 999      -4.567 -33.077  26.279  1.00 18.82     0.033 C 
ENDBRANCH  21  22
ENDBRANCH  20  21
ENDBRANCH   5  20
TORSDOF 6
