REMARK  6 active torsions:
REMARK  status: ('A' for Active; 'I' for Inactive)
REMARK    1  A    between atoms: C1_1  and  S_7 
REMARK    2  A    between atoms: S_7  and  C7_8 
REMARK    3  A    between atoms: C12_9  and  CF_10 
REMARK    4  A    between atoms: N8_15  and  CA_20 
REMARK    5  A    between atoms: CA_20  and  OB_21 
REMARK    6  A    between atoms: OB_21  and  CC_22 
ROOT
HETATM    1  C7  612 A 999      -1.515 -35.344  24.518  1.00 18.06     0.090 A 
HETATM    2  C12 612 A 999      -0.945 -36.464  23.930  1.00 14.61     0.047 A 
HETATM    3  C11 612 A 999      -0.798 -36.520  22.485  1.00 18.65     0.258 A 
HETATM    4  O11 612 A 999      -0.258 -37.445  21.893  1.00 19.51    -0.267 OA
HETATM    5  N8  612 A 999      -1.974 -34.272  23.730  1.00 19.76    -0.271 N 
HETATM    6  C9  612 A 999      -1.870 -34.285  22.325  1.00 23.47     0.332 A 
HETATM    7  O9  612 A 999      -2.284 -33.367  21.620  1.00 22.87    -0.246 OA
HETATM    8  N10 612 A 999      -1.275 -35.413  21.779  1.00 16.93    -0.275 N 
ATOM      9  H10 612 A 999      -1.175 -35.436  20.764  1.00  0.00     0.173 HD
ENDROOT
BRANCH   1  10
HETATM   10  S   612 A 999      -1.625 -35.181  26.368  1.00 32.26    -0.106 SA
BRANCH  10  11
HETATM   11  C1  612 A 999      -0.129 -34.312  26.959  1.00 32.95     0.054 C 
HETATM   12  C2  612 A 999       0.919 -34.535  25.879  1.00 34.65     0.015 C 
HETATM   13  C3  612 A 999       2.166 -33.740  26.167  1.00 27.76     0.001 C 
HETATM   14  C4  612 A 999       1.842 -32.255  26.300  1.00 29.08     0.000 C 
HETATM   15  C5  612 A 999       0.804 -32.037  27.394  1.00 28.74     0.001 C 
HETATM   16  C6  612 A 999      -0.449 -32.829  27.086  1.00 30.82     0.015 C 
ENDBRANCH  10  11
ENDBRANCH   1  10
BRANCH   2  17
HETATM   17  CF  612 A 999      -0.631 -37.776  24.674  1.00 10.07     0.019 C 
HETATM   18  CH  612 A 999      -1.767 -38.309  25.514  1.00 14.61     0.015 C 
HETATM   19  CI  612 A 999       0.690 -37.777  25.364  1.00 17.14     0.015 C 
ENDBRANCH   2  17
BRANCH   5  20
HETATM   20  CA  612 A 999      -2.640 -33.084  24.321  1.00 21.69     0.304 C 
BRANCH  20  21
HETATM   21  OB  612 A 999      -4.050 -33.122  24.135  1.00 29.12    -0.372 OA
BRANCH  21  22
HETATM   22  CC  612 A 999      -4.670 -34.080  24.997  1.00 25.28     0.165 C 
HETATM   23  CD  612 A 999      -5.195 -33.417  26.247  1.00 18.82     0.033 C 
ENDBRANCH  21  22
ENDBRANCH  20  21
ENDBRANCH   5  20
TORSDOF 6
