REMARK  6 active torsions:
REMARK  status: ('A' for Active; 'I' for Inactive)
REMARK    1  A    between atoms: C1_1  and  S_7 
REMARK    2  A    between atoms: S_7  and  C7_8 
REMARK    3  A    between atoms: C12_9  and  CF_10 
REMARK    4  A    between atoms: N8_15  and  CA_20 
REMARK    5  A    between atoms: CA_20  and  OB_21 
REMARK    6  A    between atoms: OB_21  and  CC_22 
ROOT
HETATM    1  C7  612 A 999      -1.712 -35.894  24.462  1.00 18.06     0.090 A 
HETATM    2  C12 612 A 999      -2.649 -34.950  24.065  1.00 14.61     0.047 A 
HETATM    3  C11 612 A 999      -2.847 -34.686  22.650  1.00 18.65     0.258 A 
HETATM    4  O11 612 A 999      -3.689 -33.910  22.215  1.00 19.51    -0.267 OA
HETATM    5  N8  612 A 999      -0.936 -36.581  23.510  1.00 19.76    -0.271 N 
HETATM    6  C9  612 A 999      -1.077 -36.348  22.127  1.00 23.47     0.332 A 
HETATM    7  O9  612 A 999      -0.393 -36.924  21.284  1.00 22.87    -0.246 OA
HETATM    8  N10 612 A 999      -2.039 -35.414  21.773  1.00 16.93    -0.275 N 
ATOM      9  H10 612 A 999      -2.170 -35.242  20.776  1.00  0.00     0.173 HD
ENDROOT
BRANCH   1  10
HETATM   10  S   612 A 999      -1.501 -36.344  26.254  1.00 32.26    -0.106 SA
BRANCH  10  11
HETATM   11  C1  612 A 999      -0.189 -35.287  26.963  1.00 32.95     0.054 C 
HETATM   12  C2  612 A 999       0.624 -34.801  25.771  1.00 34.65     0.015 C 
HETATM   13  C3  612 A 999       1.656 -33.791  26.199  1.00 27.76     0.001 C 
HETATM   14  C4  612 A 999       0.997 -32.615  26.914  1.00 29.08     0.000 C 
HETATM   15  C5  612 A 999       0.199 -33.107  28.114  1.00 28.74     0.001 C 
HETATM   16  C6  612 A 999      -0.844 -34.109  27.670  1.00 30.82     0.015 C 
ENDBRANCH  10  11
ENDBRANCH   1  10
BRANCH   2  17
HETATM   17  CF  612 A 999      -3.373 -33.984  25.022  1.00 10.07     0.019 C 
HETATM   18  CH  612 A 999      -4.880 -34.016  24.926  1.00 14.61     0.015 C 
HETATM   19  CI  612 A 999      -2.794 -32.611  25.046  1.00 17.14     0.015 C 
ENDBRANCH   2  17
BRANCH   5  20
HETATM   20  CA  612 A 999       0.114 -37.556  23.900  1.00 21.69     0.304 C 
BRANCH  20  21
HETATM   21  OB  612 A 999      -0.445 -38.796  24.318  1.00 29.12    -0.372 OA
BRANCH  21  22
HETATM   22  CC  612 A 999       0.173 -39.276  25.516  1.00 25.28     0.165 C 
HETATM   23  CD  612 A 999       1.356 -38.419  25.890  1.00 18.82     0.033 C 
ENDBRANCH  21  22
ENDBRANCH  20  21
ENDBRANCH   5  20
TORSDOF 6
