RAL.pdb
  rDOCK(R)          3D
libRbt.so/2013.1/901 2013/11/27
 36 40  0  0  0  0  0  0  0  0999 V2000
   27.9018    1.1003   28.2092 C   0  0  0  0  0  0
   27.0325    2.1142   28.5195 C   0  0  0  0  0  0
   27.4545    3.3176   29.0120 C   0  0  0  0  0  0
   26.4862    4.2597   29.2542 O   0  0  0  0  0  0
   28.8242    3.5409   29.1935 C   0  0  0  0  0  0
   29.6937    2.5355   28.8491 C   0  0  0  0  0  0
   31.3392    2.4746   28.9898 S   0  0  0  0  0  0
   31.5750    0.9296   28.3518 C   0  0  0  0  0  0
   32.9021    0.2536   28.2934 C   0  0  0  0  0  0
   33.6133    0.4507   27.1258 C   0  0  0  0  0  0
   34.8916   -0.0764   27.0378 C   0  0  0  0  0  0
   35.4385   -0.8170   28.0671 C   0  0  0  0  0  0
   36.7346   -1.3040   27.8886 O   0  0  0  0  0  0
   34.7453   -0.9736   29.2494 C   0  0  0  0  0  0
   33.4706   -0.4270   29.3347 C   0  0  0  0  0  0
   29.2248    1.2853   28.3538 C   0  0  0  0  0  0
   30.3123    0.3545   28.0956 C   0  0  0  0  0  0
   30.0940   -0.9328   27.6431 C   0  0  0  0  0  0
   29.1637   -1.5938   28.1214 O   0  0  0  0  0  0
   30.9318   -1.5682   26.6202 C   0  0  0  0  0  0
   31.7537   -2.6291   26.9432 C   0  0  0  0  0  0
   32.5658   -3.2400   26.0074 C   0  0  0  0  0  0
   32.5735   -2.7468   24.7039 C   0  0  0  0  0  0
   31.7479   -1.6891   24.3668 C   0  0  0  0  0  0
   30.9236   -1.1128   25.3187 C   0  0  0  0  0  0
   33.2920   -3.1742   23.6267 O   0  0  0  0  0  0
   34.6996   -3.2517   23.7930 C   0  0  0  0  0  0
   35.2995   -4.1663   22.7586 C   0  0  0  0  0  0
   36.6801   -4.2814   22.3294 N   0  0  0  0  0  0
   36.9651   -3.2123   21.3511 C   0  0  0  0  0  0
   38.4466   -3.1330   20.9306 C   0  0  0  0  0  0
   38.7849   -4.4678   20.2472 C   0  0  0  0  0  0
   38.6363   -5.5207   21.3883 C   0  0  0  0  0  0
   37.1455   -5.5640   21.7667 C   0  0  0  0  0  0
   25.9304    4.1783   30.0041 H   0  0  0  0  0  0
   37.3373   -0.8418   27.3398 H   0  0  0  0  0  0
  1  2  2  0  0  0
  1 16  1  0  0  0
  2  3  1  0  0  0
  3  4  1  0  0  0
  3  5  2  0  0  0
  4 35  1  0  0  0
  5  6  1  0  0  0
  6  7  1  0  0  0
  6 16  2  0  0  0
  7  8  1  0  0  0
  8  9  1  0  0  0
  8 17  2  0  0  0
  9 10  2  0  0  0
  9 15  1  0  0  0
 10 11  1  0  0  0
 11 12  2  0  0  0
 12 13  1  0  0  0
 12 14  1  0  0  0
 13 36  1  0  0  0
 14 15  2  0  0  0
 16 17  1  0  0  0
 17 18  1  0  0  0
 18 19  2  0  0  0
 18 20  1  0  0  0
 20 21  2  0  0  0
 20 25  1  0  0  0
 21 22  1  0  0  0
 22 23  2  0  0  0
 23 24  1  0  0  0
 23 26  1  0  0  0
 24 25  2  0  0  0
 26 27  1  0  0  0
 27 28  1  0  0  0
 28 29  1  0  0  0
 29 30  1  0  0  0
 29 34  1  0  0  0
 30 31  1  0  0  0
 31 32  1  0  0  0
 32 33  1  0  0  0
 33 34  1  0  0  0
M  END
>  <CHROM.0>
-172.27051794,-60.56480275,74.69948756

>  <CHROM.1>
75.29637178,-91.84463402,28.49615942,139.03549326,111.85711641,-54.25314803
159.93106791,162.60196309,-81.31265392,32.70616057,-0.89616618,26.26588093
2.30407782,-0.13053400,0.93672283

>  <FORMUL>
      RAL    C28 H27 N1 O4 S1

>  <HET>
 RAL  A 600      34

>  <HETNAM>
     RAL RALOXIFENE

>  <Name>
RAL.pdb

>  <RI>
0

>  <Rbt.Current_Directory>
/home/malgorzata/Desktop/rDOCK_IFD/Wyniki/6c_estrogen_receptor

>  <Rbt.Executable>
rbdock ($Id: //depot/dev/client3/rdock/2013.1/src/exe/rbdock.cxx#4 $)

>  <Rbt.Library>
libRbt.so (2013.1, Build901 2013/11/27)

>  <Rbt.Parameter_File>
/home/malgorzata/Desktop/rDock_2013.1_src/data/scripts/soft_docking.prm

>  <Rbt.Receptor>
cavity.prm

>  <SCORE>
-27.3222

>  <SCORE.INTER>
-28.2895

>  <SCORE.INTER.CONST>
1

>  <SCORE.INTER.POLAR>
-0.290751

>  <SCORE.INTER.REPUL>
0

>  <SCORE.INTER.ROT>
7

>  <SCORE.INTER.VDW>
-39.7009

>  <SCORE.INTER.norm>
-0.832044

>  <SCORE.INTRA>
1.2481

>  <SCORE.INTRA.DIHEDRAL>
22.6136

>  <SCORE.INTRA.DIHEDRAL.0>
18.358

>  <SCORE.INTRA.POLAR>
0

>  <SCORE.INTRA.POLAR.0>
0

>  <SCORE.INTRA.REPUL>
0

>  <SCORE.INTRA.REPUL.0>
0

>  <SCORE.INTRA.VDW>
-3.27461

>  <SCORE.INTRA.VDW.0>
-1.94569

>  <SCORE.INTRA.norm>
0.0367088

>  <SCORE.RESTR>
0.517298

>  <SCORE.RESTR.CAVITY>
0.517298

>  <SCORE.RESTR.norm>
0.0152146

>  <SCORE.SYSTEM>
-0.798089

>  <SCORE.SYSTEM.CONST>
0

>  <SCORE.SYSTEM.DIHEDRAL>
0.802649

>  <SCORE.SYSTEM.VDW>
-1.19941

>  <SCORE.SYSTEM.norm>
-0.0234732

>  <SCORE.heavy>
34

>  <SCORE.norm>
-0.803594

$$$$
RAL.pdb
  rDOCK(R)          3D
libRbt.so/2013.1/901 2013/11/27
 36 40  0  0  0  0  0  0  0  0999 V2000
   27.8608   -2.4525   26.5768 C   0  0  0  0  0  0
   26.7044   -2.7669   27.2429 C   0  0  0  0  0  0
   26.5088   -2.4572   28.5599 C   0  0  0  0  0  0
   25.2951   -2.8002   29.1015 O   0  0  0  0  0  0
   27.5123   -1.7777   29.2600 C   0  0  0  0  0  0
   28.6548   -1.4342   28.5800 C   0  0  0  0  0  0
   30.0206   -0.6843   29.1308 S   0  0  0  0  0  0
   30.8812   -0.6623   27.6787 C   0  0  0  0  0  0
   32.2811   -0.1655   27.5555 C   0  0  0  0  0  0
   33.0256   -0.2062   28.7183 C   0  0  0  0  0  0
   34.3607    0.1587   28.6570 C   0  0  0  0  0  0
   34.9362    0.5932   27.4792 C   0  0  0  0  0  0
   36.2891    0.9356   27.5144 O   0  0  0  0  0  0
   34.2038    0.5892   26.3103 C   0  0  0  0  0  0
   32.8701    0.2056   26.3782 C   0  0  0  0  0  0
   28.8386   -1.7847   27.2120 C   0  0  0  0  0  0
   30.1352   -1.3615   26.7065 C   0  0  0  0  0  0
   30.5483   -1.6245   25.4143 C   0  0  0  0  0  0
   29.9664   -1.0783   24.4687 O   0  0  0  0  0  0
   31.6486   -2.5438   25.1036 C   0  0  0  0  0  0
   31.9009   -2.9244   23.8009 C   0  0  0  0  0  0
   32.9191   -3.7996   23.4760 C   0  0  0  0  0  0
   33.6948   -4.3350   24.5028 C   0  0  0  0  0  0
   33.4562   -3.9545   25.8113 C   0  0  0  0  0  0
   32.4460   -3.0542   26.1060 C   0  0  0  0  0  0
   34.7335   -5.2152   24.4268 O   0  0  0  0  0  0
   35.2909   -5.4294   23.1390 C   0  0  0  0  0  0
   36.0284   -4.2010   22.6769 C   0  0  0  0  0  0
   36.9568   -4.0527   21.5725 N   0  0  0  0  0  0
   36.8042   -5.2071   20.6641 C   0  0  0  0  0  0
   37.6316   -5.0922   19.3679 C   0  0  0  0  0  0
   39.1094   -5.0452   19.7888 C   0  0  0  0  0  0
   39.2289   -3.7111   20.5879 C   0  0  0  0  0  0
   38.3923   -3.8792   21.8683 C   0  0  0  0  0  0
   24.8274   -3.5419   28.7711 H   0  0  0  0  0  0
   36.5813    1.6341   28.0665 H   0  0  0  0  0  0
  1  2  2  0  0  0
  1 16  1  0  0  0
  2  3  1  0  0  0
  3  4  1  0  0  0
  3  5  2  0  0  0
  4 35  1  0  0  0
  5  6  1  0  0  0
  6  7  1  0  0  0
  6 16  2  0  0  0
  7  8  1  0  0  0
  8  9  1  0  0  0
  8 17  2  0  0  0
  9 10  2  0  0  0
  9 15  1  0  0  0
 10 11  1  0  0  0
 11 12  2  0  0  0
 12 13  1  0  0  0
 12 14  1  0  0  0
 13 36  1  0  0  0
 14 15  2  0  0  0
 16 17  1  0  0  0
 17 18  1  0  0  0
 18 19  2  0  0  0
 18 20  1  0  0  0
 20 21  2  0  0  0
 20 25  1  0  0  0
 21 22  1  0  0  0
 22 23  2  0  0  0
 23 24  1  0  0  0
 23 26  1  0  0  0
 24 25  2  0  0  0
 26 27  1  0  0  0
 27 28  1  0  0  0
 28 29  1  0  0  0
 29 30  1  0  0  0
 29 34  1  0  0  0
 30 31  1  0  0  0
 31 32  1  0  0  0
 32 33  1  0  0  0
 33 34  1  0  0  0
M  END
>  <CHROM.0>
57.96224963,-60.56480275,113.07012269

>  <CHROM.1>
29.55976136,24.25613616,-61.43713276,-112.53337255,170.58785151,13.85292611
69.63747812,166.48163116,16.88227737,32.65759854,-2.35980243,25.53529118
2.50043902,0.28696709,0.80961348

>  <FORMUL>
      RAL    C28 H27 N1 O4 S1

>  <HET>
 RAL  A 600      34

>  <HETNAM>
     RAL RALOXIFENE

>  <Name>
RAL.pdb

>  <RI>
0

>  <Rbt.Current_Directory>
/home/malgorzata/Desktop/rDOCK_IFD/Wyniki/6c_estrogen_receptor

>  <Rbt.Executable>
rbdock ($Id: //depot/dev/client3/rdock/2013.1/src/exe/rbdock.cxx#4 $)

>  <Rbt.Library>
libRbt.so (2013.1, Build901 2013/11/27)

>  <Rbt.Parameter_File>
/home/malgorzata/Desktop/rDock_2013.1_src/data/scripts/soft_docking.prm

>  <Rbt.Receptor>
cavity.prm

>  <SCORE>
-32.7711

>  <SCORE.INTER>
-34.5793

>  <SCORE.INTER.CONST>
1

>  <SCORE.INTER.POLAR>
-1.34885

>  <SCORE.INTER.REPUL>
0.379188

>  <SCORE.INTER.ROT>
7

>  <SCORE.INTER.VDW>
-44.2891

>  <SCORE.INTER.norm>
-1.01704

>  <SCORE.INTRA>
1.93455

>  <SCORE.INTRA.DIHEDRAL>
2.43232

>  <SCORE.INTRA.DIHEDRAL.0>
18.358

>  <SCORE.INTRA.POLAR>
0

>  <SCORE.INTRA.POLAR.0>
0

>  <SCORE.INTRA.REPUL>
0

>  <SCORE.INTRA.REPUL.0>
0

>  <SCORE.INTRA.VDW>
1.44808

>  <SCORE.INTRA.VDW.0>
-1.94569

>  <SCORE.INTRA.norm>
0.0568984

>  <SCORE.RESTR>
0.340692

>  <SCORE.RESTR.CAVITY>
0.340692

>  <SCORE.RESTR.norm>
0.0100204

>  <SCORE.SYSTEM>
-0.467081

>  <SCORE.SYSTEM.CONST>
0

>  <SCORE.SYSTEM.DIHEDRAL>
0.803479

>  <SCORE.SYSTEM.VDW>
-0.86882

>  <SCORE.SYSTEM.norm>
-0.0137377

>  <SCORE.heavy>
34

>  <SCORE.norm>
-0.963857

$$$$
RAL.pdb
  rDOCK(R)          3D
libRbt.so/2013.1/901 2013/11/27
 36 40  0  0  0  0  0  0  0  0999 V2000
   26.9583   -1.9473   26.4492 C   0  0  0  0  0  0
   25.6424   -1.5644   26.4893 C   0  0  0  0  0  0
   25.2113   -0.4956   27.2245 C   0  0  0  0  0  0
   23.8730   -0.1983   27.1561 O   0  0  0  0  0  0
   26.1416    0.2542   27.9533 C   0  0  0  0  0  0
   27.4632   -0.1117   27.8830 C   0  0  0  0  0  0
   28.7747    0.5320   28.6555 S   0  0  0  0  0  0
   29.9540   -0.4912   28.0135 C   0  0  0  0  0  0
   31.3882   -0.4547   28.4178 C   0  0  0  0  0  0
   31.6368    0.0956   29.6602 C   0  0  0  0  0  0
   32.9377    0.0823   30.1366 C   0  0  0  0  0  0
   33.9764   -0.4276   29.3828 C   0  0  0  0  0  0
   35.2525   -0.4013   29.9484 O   0  0  0  0  0  0
   33.7195   -1.0180   28.1629 C   0  0  0  0  0  0
   32.4091   -1.0152   27.7007 C   0  0  0  0  0  0
   27.8818   -1.2404   27.1222 C   0  0  0  0  0  0
   29.3145   -1.4702   27.2241 C   0  0  0  0  0  0
   29.9412   -2.5305   26.5977 C   0  0  0  0  0  0
   30.0597   -3.6057   27.1988 O   0  0  0  0  0  0
   30.4936   -2.4384   25.2418 C   0  0  0  0  0  0
   31.2284   -1.3358   24.8548 C   0  0  0  0  0  0
   31.7498   -1.2111   23.5816 C   0  0  0  0  0  0
   31.4983   -2.2201   22.6535 C   0  0  0  0  0  0
   30.7700   -3.3335   23.0325 C   0  0  0  0  0  0
   30.2820   -3.4452   24.3237 C   0  0  0  0  0  0
   31.8941   -2.3095   21.3516 O   0  0  0  0  0  0
   32.9630   -3.2011   21.0732 C   0  0  0  0  0  0
   33.1457   -3.3512   19.5864 C   0  0  0  0  0  0
   32.3003   -4.0325   18.6248 N   0  0  0  0  0  0
   32.6071   -3.5201   17.2741 C   0  0  0  0  0  0
   31.8797   -4.2743   16.1428 C   0  0  0  0  0  0
   30.3735   -4.0667   16.3694 C   0  0  0  0  0  0
   30.0954   -4.7900   17.7230 C   0  0  0  0  0  0
   30.8369   -3.9987   18.8146 C   0  0  0  0  0  0
   23.5701    0.6561   27.3932 H   0  0  0  0  0  0
   35.7562    0.3886   29.9316 H   0  0  0  0  0  0
  1  2  2  0  0  0
  1 16  1  0  0  0
  2  3  1  0  0  0
  3  4  1  0  0  0
  3  5  2  0  0  0
  4 35  1  0  0  0
  5  6  1  0  0  0
  6  7  1  0  0  0
  6 16  2  0  0  0
  7  8  1  0  0  0
  8  9  1  0  0  0
  8 17  2  0  0  0
  9 10  2  0  0  0
  9 15  1  0  0  0
 10 11  1  0  0  0
 11 12  2  0  0  0
 12 13  1  0  0  0
 12 14  1  0  0  0
 13 36  1  0  0  0
 14 15  2  0  0  0
 16 17  1  0  0  0
 17 18  1  0  0  0
 18 19  2  0  0  0
 18 20  1  0  0  0
 20 21  2  0  0  0
 20 25  1  0  0  0
 21 22  1  0  0  0
 22 23  2  0  0  0
 23 24  1  0  0  0
 23 26  1  0  0  0
 24 25  2  0  0  0
 26 27  1  0  0  0
 27 28  1  0  0  0
 28 29  1  0  0  0
 29 30  1  0  0  0
 29 34  1  0  0  0
 30 31  1  0  0  0
 31 32  1  0  0  0
 32 33  1  0  0  0
 33 34  1  0  0  0
M  END
>  <CHROM.0>
26.22405469,-60.56480275,5.52136282

>  <CHROM.1>
-159.83239700,22.71696700,-80.50703712,90.26033767,43.96757392,103.96112670
171.35670211,-71.30889422,160.08113409,30.39517809,-1.80503258,24.82134079
1.76057510,-0.04706641,1.25392589

>  <FORMUL>
      RAL    C28 H27 N1 O4 S1

>  <HET>
 RAL  A 600      34

>  <HETNAM>
     RAL RALOXIFENE

>  <Name>
RAL.pdb

>  <RI>
0

>  <Rbt.Current_Directory>
/home/malgorzata/Desktop/rDOCK_IFD/Wyniki/6c_estrogen_receptor

>  <Rbt.Executable>
rbdock ($Id: //depot/dev/client3/rdock/2013.1/src/exe/rbdock.cxx#4 $)

>  <Rbt.Library>
libRbt.so (2013.1, Build901 2013/11/27)

>  <Rbt.Parameter_File>
/home/malgorzata/Desktop/rDock_2013.1_src/data/scripts/soft_docking.prm

>  <Rbt.Receptor>
cavity.prm

>  <SCORE>
-34.6317

>  <SCORE.INTER>
-35.8538

>  <SCORE.INTER.CONST>
1

>  <SCORE.INTER.POLAR>
-2.20596

>  <SCORE.INTER.REPUL>
0.137427

>  <SCORE.INTER.ROT>
7

>  <SCORE.INTER.VDW>
-41.4406

>  <SCORE.INTER.norm>
-1.05452

>  <SCORE.INTRA>
1.51778

>  <SCORE.INTRA.DIHEDRAL>
12.8974

>  <SCORE.INTRA.DIHEDRAL.0>
18.358

>  <SCORE.INTRA.POLAR>
0

>  <SCORE.INTRA.POLAR.0>
0

>  <SCORE.INTRA.REPUL>
0

>  <SCORE.INTRA.REPUL.0>
0

>  <SCORE.INTRA.VDW>
-1.06171

>  <SCORE.INTRA.VDW.0>
-1.94569

>  <SCORE.INTRA.norm>
0.0446406

>  <SCORE.RESTR>
0.283759

>  <SCORE.RESTR.CAVITY>
0.283759

>  <SCORE.RESTR.norm>
0.00834586

>  <SCORE.SYSTEM>
-0.5795

>  <SCORE.SYSTEM.CONST>
0

>  <SCORE.SYSTEM.DIHEDRAL>
0.804994

>  <SCORE.SYSTEM.VDW>
-0.981997

>  <SCORE.SYSTEM.norm>
-0.0170441

>  <SCORE.heavy>
34

>  <SCORE.norm>
-1.01858

$$$$
RAL.pdb
  rDOCK(R)          3D
libRbt.so/2013.1/901 2013/11/27
 36 40  0  0  0  0  0  0  0  0999 V2000
   28.0047   -0.3910   27.1068 C   0  0  0  0  0  0
   26.8477   -0.6646   27.7897 C   0  0  0  0  0  0
   26.8199   -0.8420   29.1449 C   0  0  0  0  0  0
   25.5928   -1.0810   29.7115 O   0  0  0  0  0  0
   28.0079   -0.7246   29.8753 C   0  0  0  0  0  0
   29.1585   -0.4165   29.1920 C   0  0  0  0  0  0
   30.7050   -0.2612   29.7535 S   0  0  0  0  0  0
   31.4530    0.1150   28.2877 C   0  0  0  0  0  0
   32.9250    0.2913   28.1327 C   0  0  0  0  0  0
   33.3232    0.9348   26.9772 C   0  0  0  0  0  0
   34.6706    1.2099   26.8090 C   0  0  0  0  0  0
   35.6083    0.8205   27.7451 C   0  0  0  0  0  0
   36.9419    1.1455   27.4906 O   0  0  0  0  0  0
   35.2039    0.2195   28.9190 C   0  0  0  0  0  0
   33.8486   -0.0372   29.0864 C   0  0  0  0  0  0
   29.1610   -0.2536   27.7772 C   0  0  0  0  0  0
   30.4913    0.0249   27.2593 C   0  0  0  0  0  0
   30.7423    0.1857   25.9099 C   0  0  0  0  0  0
   30.2916    1.1777   25.3235 O   0  0  0  0  0  0
   31.5150   -0.7829   25.1246 C   0  0  0  0  0  0
   31.7487   -0.5724   23.7805 C   0  0  0  0  0  0
   32.4594   -1.4716   23.0094 C   0  0  0  0  0  0
   32.9282   -2.6410   23.6057 C   0  0  0  0  0  0
   32.7068   -2.8587   24.9538 C   0  0  0  0  0  0
   32.0145   -1.9274   25.7095 C   0  0  0  0  0  0
   33.6342   -3.6667   23.0499 O   0  0  0  0  0  0
   33.9191   -3.5628   21.6632 C   0  0  0  0  0  0
   35.4014   -3.6720   21.4237 C   0  0  0  0  0  0
   36.1327   -3.6140   20.1726 N   0  0  0  0  0  0
   35.3153   -4.2402   19.1139 C   0  0  0  0  0  0
   35.9190   -4.1069   17.7013 C   0  0  0  0  0  0
   37.2663   -4.8468   17.7240 C   0  0  0  0  0  0
   38.1303   -4.0207   18.7259 C   0  0  0  0  0  0
   37.4904   -4.1900   20.1149 C   0  0  0  0  0  0
   25.3614   -1.9486   29.9793 H   0  0  0  0  0  0
   37.2025    1.4166   26.6323 H   0  0  0  0  0  0
  1  2  2  0  0  0
  1 16  1  0  0  0
  2  3  1  0  0  0
  3  4  1  0  0  0
  3  5  2  0  0  0
  4 35  1  0  0  0
  5  6  1  0  0  0
  6  7  1  0  0  0
  6 16  2  0  0  0
  7  8  1  0  0  0
  8  9  1  0  0  0
  8 17  2  0  0  0
  9 10  2  0  0  0
  9 15  1  0  0  0
 10 11  1  0  0  0
 11 12  2  0  0  0
 12 13  1  0  0  0
 12 14  1  0  0  0
 13 36  1  0  0  0
 14 15  2  0  0  0
 16 17  1  0  0  0
 17 18  1  0  0  0
 18 19  2  0  0  0
 18 20  1  0  0  0
 20 21  2  0  0  0
 20 25  1  0  0  0
 21 22  1  0  0  0
 22 23  2  0  0  0
 23 24  1  0  0  0
 23 26  1  0  0  0
 24 25  2  0  0  0
 26 27  1  0  0  0
 27 28  1  0  0  0
 28 29  1  0  0  0
 29 30  1  0  0  0
 29 34  1  0  0  0
 30 31  1  0  0  0
 31 32  1  0  0  0
 32 33  1  0  0  0
 33 34  1  0  0  0
M  END
>  <CHROM.0>
-150.54073830,-60.56480275,23.63974447

>  <CHROM.1>
103.72617248,-163.41578441,-14.91458731,-111.32608782,-179.45579174,-1.46670716
124.38886622,-179.67720778,-34.75291915,32.53127605,-1.31731505,25.32542849
2.20045671,0.16732160,1.06511439

>  <FORMUL>
      RAL    C28 H27 N1 O4 S1

>  <HET>
 RAL  A 600      34

>  <HETNAM>
     RAL RALOXIFENE

>  <Name>
RAL.pdb

>  <RI>
0

>  <Rbt.Current_Directory>
/home/malgorzata/Desktop/rDOCK_IFD/Wyniki/6c_estrogen_receptor

>  <Rbt.Executable>
rbdock ($Id: //depot/dev/client3/rdock/2013.1/src/exe/rbdock.cxx#4 $)

>  <Rbt.Library>
libRbt.so (2013.1, Build901 2013/11/27)

>  <Rbt.Parameter_File>
/home/malgorzata/Desktop/rDock_2013.1_src/data/scripts/soft_docking.prm

>  <Rbt.Receptor>
cavity.prm

>  <SCORE>
-30.0962

>  <SCORE.INTER>
-31.3859

>  <SCORE.INTER.CONST>
1

>  <SCORE.INTER.POLAR>
-1.38751

>  <SCORE.INTER.REPUL>
0

>  <SCORE.INTER.ROT>
7

>  <SCORE.INTER.VDW>
-39.0684

>  <SCORE.INTER.norm>
-0.923115

>  <SCORE.INTRA>
2.01757

>  <SCORE.INTRA.DIHEDRAL>
5.70173

>  <SCORE.INTRA.DIHEDRAL.0>
18.358

>  <SCORE.INTRA.POLAR>
0

>  <SCORE.INTRA.POLAR.0>
0

>  <SCORE.INTRA.REPUL>
0

>  <SCORE.INTRA.REPUL.0>
0

>  <SCORE.INTRA.VDW>
0.877226

>  <SCORE.INTRA.VDW.0>
-1.94569

>  <SCORE.INTRA.norm>
0.0593403

>  <SCORE.RESTR>
0.15873

>  <SCORE.RESTR.CAVITY>
0.15873

>  <SCORE.RESTR.norm>
0.00466852

>  <SCORE.SYSTEM>
-0.886547

>  <SCORE.SYSTEM.CONST>
0

>  <SCORE.SYSTEM.DIHEDRAL>
0.806804

>  <SCORE.SYSTEM.VDW>
-1.28995

>  <SCORE.SYSTEM.norm>
-0.0260749

>  <SCORE.heavy>
34

>  <SCORE.norm>
-0.885181

$$$$
RAL.pdb
  rDOCK(R)          3D
libRbt.so/2013.1/901 2013/11/27
 36 40  0  0  0  0  0  0  0  0999 V2000
   33.6287   -1.8406   27.7841 C   0  0  0  0  0  0
   34.7909   -1.3080   28.2793 C   0  0  0  0  0  0
   34.8107   -0.1798   29.0511 C   0  0  0  0  0  0
   36.0367    0.2337   29.5092 O   0  0  0  0  0  0
   33.6039    0.4536   29.3690 C   0  0  0  0  0  0
   32.4394   -0.1025   28.8997 C   0  0  0  0  0  0
   30.8824    0.4282   29.0585 S   0  0  0  0  0  0
   30.1202   -0.8139   28.2065 C   0  0  0  0  0  0
   28.6571   -0.8447   27.9233 C   0  0  0  0  0  0
   28.2693   -1.7090   26.9179 C   0  0  0  0  0  0
   26.9155   -1.8529   26.6609 C   0  0  0  0  0  0
   25.9684   -1.1271   27.3561 C   0  0  0  0  0  0
   24.6283   -1.3427   27.0296 O   0  0  0  0  0  0
   26.3545   -0.2997   28.3900 C   0  0  0  0  0  0
   27.7134   -0.1745   28.6518 C   0  0  0  0  0  0
   32.4499   -1.2694   28.0834 C   0  0  0  0  0  0
   31.1123   -1.6580   27.6643 C   0  0  0  0  0  0
   30.8803   -2.7408   26.8377 C   0  0  0  0  0  0
   30.2328   -3.7038   27.2674 O   0  0  0  0  0  0
   31.3835   -2.8120   25.4615 C   0  0  0  0  0  0
   31.8229   -4.0095   24.9341 C   0  0  0  0  0  0
   32.3162   -4.1080   23.6475 C   0  0  0  0  0  0
   32.3979   -2.9530   22.8717 C   0  0  0  0  0  0
   31.9530   -1.7487   23.3870 C   0  0  0  0  0  0
   31.4376   -1.6837   24.6708 C   0  0  0  0  0  0
   32.8550   -2.8044   21.5955 O   0  0  0  0  0  0
   32.0334   -3.3267   20.5624 C   0  0  0  0  0  0
   32.6645   -3.0821   19.2177 C   0  0  0  0  0  0
   34.0582   -2.8514   18.8894 N   0  0  0  0  0  0
   34.5836   -1.7853   19.7660 C   0  0  0  0  0  0
   36.1005   -1.5505   19.6190 C   0  0  0  0  0  0
   36.3400   -1.0976   18.1697 C   0  0  0  0  0  0
   35.9331   -2.3389   17.3175 C   0  0  0  0  0  0
   34.4162   -2.5265   17.4948 C   0  0  0  0  0  0
   36.7966   -0.2921   29.3543 H   0  0  0  0  0  0
   24.4024   -1.9580   26.3600 H   0  0  0  0  0  0
  1  2  2  0  0  0
  1 16  1  0  0  0
  2  3  1  0  0  0
  3  4  1  0  0  0
  3  5  2  0  0  0
  4 35  1  0  0  0
  5  6  1  0  0  0
  6  7  1  0  0  0
  6 16  2  0  0  0
  7  8  1  0  0  0
  8  9  1  0  0  0
  8 17  2  0  0  0
  9 10  2  0  0  0
  9 15  1  0  0  0
 10 11  1  0  0  0
 11 12  2  0  0  0
 12 13  1  0  0  0
 12 14  1  0  0  0
 13 36  1  0  0  0
 14 15  2  0  0  0
 16 17  1  0  0  0
 17 18  1  0  0  0
 18 19  2  0  0  0
 18 20  1  0  0  0
 20 21  2  0  0  0
 20 25  1  0  0  0
 21 22  1  0  0  0
 22 23  2  0  0  0
 23 24  1  0  0  0
 23 26  1  0  0  0
 24 25  2  0  0  0
 26 27  1  0  0  0
 27 28  1  0  0  0
 28 29  1  0  0  0
 29 30  1  0  0  0
 29 34  1  0  0  0
 30 31  1  0  0  0
 31 32  1  0  0  0
 32 33  1  0  0  0
 33 34  1  0  0  0
M  END
>  <CHROM.0>
-151.10178357,-60.56480275,-110.51157567

>  <CHROM.1>
-5.46778627,162.50924237,-0.19408685,-63.18475254,143.16366470,71.89464628
179.73153528,23.07544621,-50.51079019,31.76025801,-1.65302644,25.07276950
-2.07455565,-0.12644863,-1.81343749

>  <FORMUL>
      RAL    C28 H27 N1 O4 S1

>  <HET>
 RAL  A 600      34

>  <HETNAM>
     RAL RALOXIFENE

>  <Name>
RAL.pdb

>  <RI>
0

>  <Rbt.Current_Directory>
/home/malgorzata/Desktop/rDOCK_IFD/Wyniki/6c_estrogen_receptor

>  <Rbt.Executable>
rbdock ($Id: //depot/dev/client3/rdock/2013.1/src/exe/rbdock.cxx#4 $)

>  <Rbt.Library>
libRbt.so (2013.1, Build901 2013/11/27)

>  <Rbt.Parameter_File>
/home/malgorzata/Desktop/rDock_2013.1_src/data/scripts/soft_docking.prm

>  <Rbt.Receptor>
cavity.prm

>  <SCORE>
-33.254

>  <SCORE.INTER>
-34.4729

>  <SCORE.INTER.CONST>
1

>  <SCORE.INTER.POLAR>
-2.66837

>  <SCORE.INTER.REPUL>
0.807121

>  <SCORE.INTER.ROT>
7

>  <SCORE.INTER.VDW>
-41.8361

>  <SCORE.INTER.norm>
-1.01391

>  <SCORE.INTRA>
1.82118

>  <SCORE.INTRA.DIHEDRAL>
4.42468

>  <SCORE.INTRA.DIHEDRAL.0>
18.358

>  <SCORE.INTRA.POLAR>
0

>  <SCORE.INTRA.POLAR.0>
0

>  <SCORE.INTRA.REPUL>
0

>  <SCORE.INTRA.REPUL.0>
0

>  <SCORE.INTRA.VDW>
0.936248

>  <SCORE.INTRA.VDW.0>
-1.94569

>  <SCORE.INTRA.norm>
0.0535642

>  <SCORE.RESTR>
0.0965713

>  <SCORE.RESTR.CAVITY>
0.0965713

>  <SCORE.RESTR.norm>
0.00284033

>  <SCORE.SYSTEM>
-0.698897

>  <SCORE.SYSTEM.CONST>
0

>  <SCORE.SYSTEM.DIHEDRAL>
0.805646

>  <SCORE.SYSTEM.VDW>
-1.10172

>  <SCORE.SYSTEM.norm>
-0.0205558

>  <SCORE.heavy>
34

>  <SCORE.norm>
-0.97806

$$$$
RAL.pdb
  rDOCK(R)          3D
libRbt.so/2013.1/901 2013/11/27
 36 40  0  0  0  0  0  0  0  0999 V2000
   33.1482   -0.1811   27.4818 C   0  0  0  0  0  0
   34.2517    0.5513   27.8362 C   0  0  0  0  0  0
   34.1613    1.8248   28.3248 C   0  0  0  0  0  0
   35.3391    2.4389   28.6706 O   0  0  0  0  0  0
   32.8992    2.4066   28.4907 C   0  0  0  0  0  0
   31.7950    1.6572   28.1670 C   0  0  0  0  0  0
   30.1957    2.0719   28.2031 S   0  0  0  0  0  0
   29.5578    0.6044   27.6652 C   0  0  0  0  0  0
   28.1079    0.3810   27.4015 C   0  0  0  0  0  0
   27.7074   -0.9409   27.3912 C   0  0  0  0  0  0
   26.3585   -1.2179   27.2387 C   0  0  0  0  0  0
   25.4313   -0.2103   27.0596 C   0  0  0  0  0  0
   24.0944   -0.5866   26.9185 O   0  0  0  0  0  0
   25.8266    1.1100   27.1163 C   0  0  0  0  0  0
   27.1793    1.3786   27.2865 C   0  0  0  0  0  0
   31.9197    0.3385   27.6440 C   0  0  0  0  0  0
   30.6279   -0.2521   27.3308 C   0  0  0  0  0  0
   30.5040   -1.5129   26.7789 C   0  0  0  0  0  0
   30.2869   -2.4802   27.5195 O   0  0  0  0  0  0
   30.6337   -1.7666   25.3398 C   0  0  0  0  0  0
   29.7813   -1.1606   24.4389 C   0  0  0  0  0  0
   29.8669   -1.3894   23.0793 C   0  0  0  0  0  0
   30.8274   -2.2839   22.6101 C   0  0  0  0  0  0
   31.6924   -2.8909   23.5031 C   0  0  0  0  0  0
   31.6018   -2.6224   24.8586 C   0  0  0  0  0  0
   31.0888   -2.6719   21.3293 O   0  0  0  0  0  0
   30.5406   -3.9152   20.9185 C   0  0  0  0  0  0
   30.6715   -4.0779   19.4276 C   0  0  0  0  0  0
   31.6714   -3.5293   18.5316 N   0  0  0  0  0  0
   33.0105   -3.7811   19.1013 C   0  0  0  0  0  0
   34.1694   -3.3783   18.1673 C   0  0  0  0  0  0
   34.0540   -1.8613   17.9473 C   0  0  0  0  0  0
   32.7045   -1.6954   17.1832 C   0  0  0  0  0  0
   31.5851   -2.1044   18.1565 C   0  0  0  0  0  0
   36.1427    1.9574   28.6483 H   0  0  0  0  0  0
   23.4306    0.0684   26.8260 H   0  0  0  0  0  0
  1  2  2  0  0  0
  1 16  1  0  0  0
  2  3  1  0  0  0
  3  4  1  0  0  0
  3  5  2  0  0  0
  4 35  1  0  0  0
  5  6  1  0  0  0
  6  7  1  0  0  0
  6 16  2  0  0  0
  7  8  1  0  0  0
  8  9  1  0  0  0
  8 17  2  0  0  0
  9 10  2  0  0  0
  9 15  1  0  0  0
 10 11  1  0  0  0
 11 12  2  0  0  0
 12 13  1  0  0  0
 12 14  1  0  0  0
 13 36  1  0  0  0
 14 15  2  0  0  0
 16 17  1  0  0  0
 17 18  1  0  0  0
 18 19  2  0  0  0
 18 20  1  0  0  0
 20 21  2  0  0  0
 20 25  1  0  0  0
 21 22  1  0  0  0
 22 23  2  0  0  0
 23 24  1  0  0  0
 23 26  1  0  0  0
 24 25  2  0  0  0
 26 27  1  0  0  0
 27 28  1  0  0  0
 28 29  1  0  0  0
 29 30  1  0  0  0
 29 34  1  0  0  0
 30 31  1  0  0  0
 31 32  1  0  0  0
 32 33  1  0  0  0
 33 34  1  0  0  0
M  END
>  <CHROM.0>
146.50041475,-60.56480275,35.23128213

>  <CHROM.1>
-6.10838610,-159.99157298,177.79484062,-83.14182622,-60.09542068,-99.23375094
168.61990940,28.69964775,48.36183570,30.68384468,-0.85496687,24.72286139
-1.83752620,-0.16496307,-2.01697779

>  <FORMUL>
      RAL    C28 H27 N1 O4 S1

>  <HET>
 RAL  A 600      34

>  <HETNAM>
     RAL RALOXIFENE

>  <Name>
RAL.pdb

>  <RI>
0

>  <Rbt.Current_Directory>
/home/malgorzata/Desktop/rDOCK_IFD/Wyniki/6c_estrogen_receptor

>  <Rbt.Executable>
rbdock ($Id: //depot/dev/client3/rdock/2013.1/src/exe/rbdock.cxx#4 $)

>  <Rbt.Library>
libRbt.so (2013.1, Build901 2013/11/27)

>  <Rbt.Parameter_File>
/home/malgorzata/Desktop/rDock_2013.1_src/data/scripts/soft_docking.prm

>  <Rbt.Receptor>
cavity.prm

>  <SCORE>
-29.5486

>  <SCORE.INTER>
-30.5874

>  <SCORE.INTER.CONST>
1

>  <SCORE.INTER.POLAR>
-1.71819

>  <SCORE.INTER.REPUL>
0.235366

>  <SCORE.INTER.ROT>
7

>  <SCORE.INTER.VDW>
-38.3224

>  <SCORE.INTER.norm>
-0.899628

>  <SCORE.INTRA>
1.69258

>  <SCORE.INTRA.DIHEDRAL>
12.988

>  <SCORE.INTRA.DIHEDRAL.0>
18.358

>  <SCORE.INTRA.POLAR>
0

>  <SCORE.INTRA.POLAR.0>
0

>  <SCORE.INTRA.REPUL>
0

>  <SCORE.INTRA.REPUL.0>
0

>  <SCORE.INTRA.VDW>
-0.905011

>  <SCORE.INTRA.VDW.0>
-1.94569

>  <SCORE.INTRA.norm>
0.0497819

>  <SCORE.RESTR>
0.111012

>  <SCORE.RESTR.CAVITY>
0.111012

>  <SCORE.RESTR.norm>
0.00326507

>  <SCORE.SYSTEM>
-0.76486

>  <SCORE.SYSTEM.CONST>
0

>  <SCORE.SYSTEM.DIHEDRAL>
0.806661

>  <SCORE.SYSTEM.VDW>
-1.16819

>  <SCORE.SYSTEM.norm>
-0.0224959

>  <SCORE.heavy>
34

>  <SCORE.norm>
-0.869077

$$$$
RAL.pdb
  rDOCK(R)          3D
libRbt.so/2013.1/901 2013/11/27
 36 40  0  0  0  0  0  0  0  0999 V2000
   33.6601   -1.4166   27.7307 C   0  0  0  0  0  0
   34.8967   -1.0544   28.1991 C   0  0  0  0  0  0
   35.0789   -0.0022   29.0526 C   0  0  0  0  0  0
   36.3638    0.2382   29.4712 O   0  0  0  0  0  0
   33.9667    0.7288   29.4855 C   0  0  0  0  0  0
   32.7265    0.3414   29.0414 C   0  0  0  0  0  0
   31.2477    1.0213   29.3278 S   0  0  0  0  0  0
   30.3121   -0.0574   28.4275 C   0  0  0  0  0  0
   28.8429    0.0925   28.2256 C   0  0  0  0  0  0
   28.0703   -0.9332   28.7346 C   0  0  0  0  0  0
   26.6917   -0.8172   28.6596 C   0  0  0  0  0  0
   26.0915    0.2712   28.0577 C   0  0  0  0  0  0
   24.6960    0.3020   28.0334 O   0  0  0  0  0  0
   26.8631    1.3153   27.5917 C   0  0  0  0  0  0
   28.2444    1.1977   27.6864 C   0  0  0  0  0  0
   32.5679   -0.7487   28.1389 C   0  0  0  0  0  0
   31.1770   -0.9556   27.7673 C   0  0  0  0  0  0
   30.7865   -1.9356   26.8746 C   0  0  0  0  0  0
   30.0962   -2.8809   27.2758 O   0  0  0  0  0  0
   31.1680   -1.9176   25.4581 C   0  0  0  0  0  0
   30.3732   -2.5260   24.5076 C   0  0  0  0  0  0
   30.7110   -2.5401   23.1682 C   0  0  0  0  0  0
   31.9079   -1.9450   22.7733 C   0  0  0  0  0  0
   32.7085   -1.3252   23.7162 C   0  0  0  0  0  0
   32.3322   -1.3024   25.0487 C   0  0  0  0  0  0
   32.4491   -1.8466   21.5256 O   0  0  0  0  0  0
   32.4688   -3.0334   20.7470 C   0  0  0  0  0  0
   33.3795   -4.0554   21.3735 C   0  0  0  0  0  0
   34.8076   -3.9822   21.6156 N   0  0  0  0  0  0
   35.3250   -2.7265   21.0353 C   0  0  0  0  0  0
   36.8085   -2.4571   21.3581 C   0  0  0  0  0  0
   37.6139   -3.6062   20.7304 C   0  0  0  0  0  0
   37.1433   -4.8673   21.5184 C   0  0  0  0  0  0
   35.6644   -5.0940   21.1594 C   0  0  0  0  0  0
   36.9134   -0.4751   29.7303 H   0  0  0  0  0  0
   24.2383    0.1666   27.2270 H   0  0  0  0  0  0
  1  2  2  0  0  0
  1 16  1  0  0  0
  2  3  1  0  0  0
  3  4  1  0  0  0
  3  5  2  0  0  0
  4 35  1  0  0  0
  5  6  1  0  0  0
  6  7  1  0  0  0
  6 16  2  0  0  0
  7  8  1  0  0  0
  8  9  1  0  0  0
  8 17  2  0  0  0
  9 10  2  0  0  0
  9 15  1  0  0  0
 10 11  1  0  0  0
 11 12  2  0  0  0
 12 13  1  0  0  0
 12 14  1  0  0  0
 13 36  1  0  0  0
 14 15  2  0  0  0
 16 17  1  0  0  0
 17 18  1  0  0  0
 18 19  2  0  0  0
 18 20  1  0  0  0
 20 21  2  0  0  0
 20 25  1  0  0  0
 21 22  1  0  0  0
 22 23  2  0  0  0
 23 24  1  0  0  0
 23 26  1  0  0  0
 24 25  2  0  0  0
 26 27  1  0  0  0
 27 28  1  0  0  0
 28 29  1  0  0  0
 29 30  1  0  0  0
 29 34  1  0  0  0
 30 31  1  0  0  0
 31 32  1  0  0  0
 32 33  1  0  0  0
 33 34  1  0  0  0
M  END
>  <CHROM.0>
80.00911028,-60.56480275,56.68572170

>  <CHROM.1>
-43.58420469,-117.83510797,-108.47220740,-65.73254373,-152.93109774,-47.18681575
-65.70000496,-62.18024547,-4.62864283,31.99283611,-1.36843582,25.75958296
-2.26759685,0.06264323,-1.99913049

>  <FORMUL>
      RAL    C28 H27 N1 O4 S1

>  <HET>
 RAL  A 600      34

>  <HETNAM>
     RAL RALOXIFENE

>  <Name>
RAL.pdb

>  <RI>
0

>  <Rbt.Current_Directory>
/home/malgorzata/Desktop/rDOCK_IFD/Wyniki/6c_estrogen_receptor

>  <Rbt.Executable>
rbdock ($Id: //depot/dev/client3/rdock/2013.1/src/exe/rbdock.cxx#4 $)

>  <Rbt.Library>
libRbt.so (2013.1, Build901 2013/11/27)

>  <Rbt.Parameter_File>
/home/malgorzata/Desktop/rDock_2013.1_src/data/scripts/soft_docking.prm

>  <Rbt.Receptor>
cavity.prm

>  <SCORE>
-31.9146

>  <SCORE.INTER>
-34.9758

>  <SCORE.INTER.CONST>
1

>  <SCORE.INTER.POLAR>
-2.08939

>  <SCORE.INTER.REPUL>
0

>  <SCORE.INTER.ROT>
7

>  <SCORE.INTER.VDW>
-40.2719

>  <SCORE.INTER.norm>
-1.0287

>  <SCORE.INTRA>
3.75683

>  <SCORE.INTRA.DIHEDRAL>
16.0448

>  <SCORE.INTRA.DIHEDRAL.0>
18.358

>  <SCORE.INTRA.POLAR>
0

>  <SCORE.INTRA.POLAR.0>
0

>  <SCORE.INTRA.REPUL>
0

>  <SCORE.INTRA.REPUL.0>
0

>  <SCORE.INTRA.VDW>
0.547861

>  <SCORE.INTRA.VDW.0>
-1.94569

>  <SCORE.INTRA.norm>
0.110495

>  <SCORE.RESTR>
0

>  <SCORE.RESTR.CAVITY>
0

>  <SCORE.RESTR.norm>
0

>  <SCORE.SYSTEM>
-0.695615

>  <SCORE.SYSTEM.CONST>
0

>  <SCORE.SYSTEM.DIHEDRAL>
0.804849

>  <SCORE.SYSTEM.VDW>
-1.09804

>  <SCORE.SYSTEM.norm>
-0.0204593

>  <SCORE.heavy>
34

>  <SCORE.norm>
-0.938664

$$$$
RAL.pdb
  rDOCK(R)          3D
libRbt.so/2013.1/901 2013/11/27
 36 40  0  0  0  0  0  0  0  0999 V2000
   32.8121   -1.4978   28.8187 C   0  0  0  0  0  0
   33.8148   -0.8383   29.4816 C   0  0  0  0  0  0
   33.6594    0.4266   29.9761 C   0  0  0  0  0  0
   34.7301    0.9638   30.6460 O   0  0  0  0  0  0
   32.4292    1.0759   29.8215 C   0  0  0  0  0  0
   31.4168    0.3989   29.1873 C   0  0  0  0  0  0
   29.8887    0.9038   28.8116 S   0  0  0  0  0  0
   29.3471   -0.5117   28.0683 C   0  0  0  0  0  0
   28.0118   -0.6453   27.4195 C   0  0  0  0  0  0
   28.0106   -1.2971   26.2016 C   0  0  0  0  0  0
   26.7932   -1.5335   25.5838 C   0  0  0  0  0  0
   25.6062   -1.0986   26.1396 C   0  0  0  0  0  0
   24.4296   -1.3868   25.4458 O   0  0  0  0  0  0
   25.6054   -0.4892   27.3771 C   0  0  0  0  0  0
   26.8297   -0.2713   27.9970 C   0  0  0  0  0  0
   31.6122   -0.9124   28.6672 C   0  0  0  0  0  0
   30.4242   -1.4204   27.9990 C   0  0  0  0  0  0
   30.3910   -2.6589   27.3870 C   0  0  0  0  0  0
   29.4216   -3.4038   27.5785 O   0  0  0  0  0  0
   31.4703   -3.1466   26.5214 C   0  0  0  0  0  0
   31.6368   -2.6369   25.2494 C   0  0  0  0  0  0
   32.6333   -3.0846   24.4038 C   0  0  0  0  0  0
   33.4763   -4.1039   24.8433 C   0  0  0  0  0  0
   33.3239   -4.6166   26.1192 C   0  0  0  0  0  0
   32.3334   -4.1302   26.9559 C   0  0  0  0  0  0
   34.5097   -4.7074   24.1896 O   0  0  0  0  0  0
   34.6435   -4.4146   22.8071 C   0  0  0  0  0  0
   35.9519   -4.9444   22.2840 C   0  0  0  0  0  0
   36.8252   -4.3859   21.2696 N   0  0  0  0  0  0
   37.8308   -3.5274   21.9274 C   0  0  0  0  0  0
   38.9145   -2.9929   20.9695 C   0  0  0  0  0  0
   38.1940   -2.1218   19.9278 C   0  0  0  0  0  0
   37.2881   -3.1312   19.1577 C   0  0  0  0  0  0
   36.2257   -3.6295   20.1529 C   0  0  0  0  0  0
   34.6492    1.1942   31.5506 H   0  0  0  0  0  0
   24.2917   -1.0321   24.5895 H   0  0  0  0  0  0
  1  2  2  0  0  0
  1 16  1  0  0  0
  2  3  1  0  0  0
  3  4  1  0  0  0
  3  5  2  0  0  0
  4 35  1  0  0  0
  5  6  1  0  0  0
  6  7  1  0  0  0
  6 16  2  0  0  0
  7  8  1  0  0  0
  8  9  1  0  0  0
  8 17  2  0  0  0
  9 10  2  0  0  0
  9 15  1  0  0  0
 10 11  1  0  0  0
 11 12  2  0  0  0
 12 13  1  0  0  0
 12 14  1  0  0  0
 13 36  1  0  0  0
 14 15  2  0  0  0
 16 17  1  0  0  0
 17 18  1  0  0  0
 18 19  2  0  0  0
 18 20  1  0  0  0
 20 21  2  0  0  0
 20 25  1  0  0  0
 21 22  1  0  0  0
 22 23  2  0  0  0
 23 24  1  0  0  0
 23 26  1  0  0  0
 24 25  2  0  0  0
 26 27  1  0  0  0
 27 28  1  0  0  0
 28 29  1  0  0  0
 29 30  1  0  0  0
 29 34  1  0  0  0
 30 31  1  0  0  0
 31 32  1  0  0  0
 32 33  1  0  0  0
 33 34  1  0  0  0
M  END
>  <CHROM.0>
109.56281729,-60.56480275,-129.11836525

>  <CHROM.1>
-117.86821423,136.67565572,-62.79409877,-44.95329710,-73.80201495,-10.26707051
169.84067265,-145.28669334,92.27250406,32.05763888,-1.96776546,25.90091498
-2.43480668,-0.00456905,-2.02696391

>  <FORMUL>
      RAL    C28 H27 N1 O4 S1

>  <HET>
 RAL  A 600      34

>  <HETNAM>
     RAL RALOXIFENE

>  <Name>
RAL.pdb

>  <RI>
0

>  <Rbt.Current_Directory>
/home/malgorzata/Desktop/rDOCK_IFD/Wyniki/6c_estrogen_receptor

>  <Rbt.Executable>
rbdock ($Id: //depot/dev/client3/rdock/2013.1/src/exe/rbdock.cxx#4 $)

>  <Rbt.Library>
libRbt.so (2013.1, Build901 2013/11/27)

>  <Rbt.Parameter_File>
/home/malgorzata/Desktop/rDock_2013.1_src/data/scripts/soft_docking.prm

>  <Rbt.Receptor>
cavity.prm

>  <SCORE>
-25.6354

>  <SCORE.INTER>
-28.3836

>  <SCORE.INTER.CONST>
1

>  <SCORE.INTER.POLAR>
-0.28436

>  <SCORE.INTER.REPUL>
0

>  <SCORE.INTER.ROT>
7

>  <SCORE.INTER.VDW>
-39.8168

>  <SCORE.INTER.norm>
-0.834812

>  <SCORE.INTRA>
2.78138

>  <SCORE.INTRA.DIHEDRAL>
17.1063

>  <SCORE.INTRA.DIHEDRAL.0>
18.358

>  <SCORE.INTRA.POLAR>
0

>  <SCORE.INTRA.POLAR.0>
0

>  <SCORE.INTRA.REPUL>
0

>  <SCORE.INTRA.REPUL.0>
0

>  <SCORE.INTRA.VDW>
-0.639868

>  <SCORE.INTRA.VDW.0>
-1.94569

>  <SCORE.INTRA.norm>
0.0818054

>  <SCORE.RESTR>
0.483728

>  <SCORE.RESTR.CAVITY>
0.483728

>  <SCORE.RESTR.norm>
0.0142273

>  <SCORE.SYSTEM>
-0.516897

>  <SCORE.SYSTEM.CONST>
0

>  <SCORE.SYSTEM.DIHEDRAL>
0.803274

>  <SCORE.SYSTEM.VDW>
-0.918533

>  <SCORE.SYSTEM.norm>
-0.0152028

>  <SCORE.heavy>
34

>  <SCORE.norm>
-0.753982

$$$$
RAL.pdb
  rDOCK(R)          3D
libRbt.so/2013.1/901 2013/11/27
 36 40  0  0  0  0  0  0  0  0999 V2000
   32.3079    1.3350   26.3682 C   0  0  0  0  0  0
   33.3873    1.8417   27.0451 C   0  0  0  0  0  0
   33.3284    2.1878   28.3662 C   0  0  0  0  0  0
   34.4870    2.6554   28.9345 O   0  0  0  0  0  0
   32.1319    2.0059   29.0691 C   0  0  0  0  0  0
   31.0634    1.4661   28.3964 C   0  0  0  0  0  0
   29.5245    1.1784   28.9258 S   0  0  0  0  0  0
   28.9003    0.5278   27.4987 C   0  0  0  0  0  0
   27.4717    0.1406   27.3228 C   0  0  0  0  0  0
   26.5585    1.1629   27.4932 C   0  0  0  0  0  0
   25.2197    0.8941   27.2593 C   0  0  0  0  0  0
   24.7893   -0.3691   26.9040 C   0  0  0  0  0  0
   23.4215   -0.5427   26.6853 O   0  0  0  0  0  0
   25.7069   -1.3764   26.6897 C   0  0  0  0  0  0
   27.0492   -1.0931   26.9104 C   0  0  0  0  0  0
   31.1482    1.1301   27.0151 C   0  0  0  0  0  0
   29.8901    0.6161   26.4971 C   0  0  0  0  0  0
   29.7254    0.2575   25.1727 C   0  0  0  0  0  0
   28.8350    0.7977   24.5046 O   0  0  0  0  0  0
   30.5563   -0.7571   24.5151 C   0  0  0  0  0  0
   31.7089   -1.2206   25.1169 C   0  0  0  0  0  0
   32.5212   -2.1641   24.5182 C   0  0  0  0  0  0
   32.1768   -2.6382   23.2536 C   0  0  0  0  0  0
   31.0197   -2.1868   22.6444 C   0  0  0  0  0  0
   30.2093   -1.2605   23.2792 C   0  0  0  0  0  0
   32.8224   -3.5499   22.4715 O   0  0  0  0  0  0
   33.8097   -3.0415   21.5874 C   0  0  0  0  0  0
   33.2638   -2.9547   20.1871 C   0  0  0  0  0  0
   32.3849   -3.8733   19.4892 N   0  0  0  0  0  0
   33.1462   -4.5323   18.4088 C   0  0  0  0  0  0
   32.3627   -5.6468   17.6864 C   0  0  0  0  0  0
   31.1433   -4.9777   17.0317 C   0  0  0  0  0  0
   30.3018   -4.4674   18.2418 C   0  0  0  0  0  0
   31.1229   -3.3586   18.9228 C   0  0  0  0  0  0
   34.6072    3.5756   29.0639 H   0  0  0  0  0  0
   22.8338    0.1785   26.7973 H   0  0  0  0  0  0
  1  2  2  0  0  0
  1 16  1  0  0  0
  2  3  1  0  0  0
  3  4  1  0  0  0
  3  5  2  0  0  0
  4 35  1  0  0  0
  5  6  1  0  0  0
  6  7  1  0  0  0
  6 16  2  0  0  0
  7  8  1  0  0  0
  8  9  1  0  0  0
  8 17  2  0  0  0
  9 10  2  0  0  0
  9 15  1  0  0  0
 10 11  1  0  0  0
 11 12  2  0  0  0
 12 13  1  0  0  0
 12 14  1  0  0  0
 13 36  1  0  0  0
 14 15  2  0  0  0
 16 17  1  0  0  0
 17 18  1  0  0  0
 18 19  2  0  0  0
 18 20  1  0  0  0
 20 21  2  0  0  0
 20 25  1  0  0  0
 21 22  1  0  0  0
 22 23  2  0  0  0
 23 24  1  0  0  0
 23 26  1  0  0  0
 24 25  2  0  0  0
 26 27  1  0  0  0
 27 28  1  0  0  0
 28 29  1  0  0  0
 29 30  1  0  0  0
 29 34  1  0  0  0
 30 31  1  0  0  0
 31 32  1  0  0  0
 32 33  1  0  0  0
 33 34  1  0  0  0
M  END
>  <CHROM.0>
79.65368509,-60.56480275,63.03211910

>  <CHROM.1>
101.30495507,59.53953256,-1.18424023,57.76903128,-12.46136233,-89.12903533
-101.53904403,-38.66703313,-111.10791515,30.38294832,-0.89842381,24.62346700
-1.87801270,-0.10544658,-2.14116265

>  <FORMUL>
      RAL    C28 H27 N1 O4 S1

>  <HET>
 RAL  A 600      34

>  <HETNAM>
     RAL RALOXIFENE

>  <Name>
RAL.pdb

>  <RI>
0

>  <Rbt.Current_Directory>
/home/malgorzata/Desktop/rDOCK_IFD/Wyniki/6c_estrogen_receptor

>  <Rbt.Executable>
rbdock ($Id: //depot/dev/client3/rdock/2013.1/src/exe/rbdock.cxx#4 $)

>  <Rbt.Library>
libRbt.so (2013.1, Build901 2013/11/27)

>  <Rbt.Parameter_File>
/home/malgorzata/Desktop/rDock_2013.1_src/data/scripts/soft_docking.prm

>  <Rbt.Receptor>
cavity.prm

>  <SCORE>
-28.0755

>  <SCORE.INTER>
-30.653

>  <SCORE.INTER.CONST>
1

>  <SCORE.INTER.POLAR>
-1.57354

>  <SCORE.INTER.REPUL>
0.176573

>  <SCORE.INTER.ROT>
7

>  <SCORE.INTER.VDW>
-38.5858

>  <SCORE.INTER.norm>
-0.901558

>  <SCORE.INTRA>
2.63095

>  <SCORE.INTRA.DIHEDRAL>
19.2276

>  <SCORE.INTRA.DIHEDRAL.0>
18.358

>  <SCORE.INTRA.POLAR>
0

>  <SCORE.INTRA.POLAR.0>
0

>  <SCORE.INTRA.REPUL>
0

>  <SCORE.INTRA.REPUL.0>
0

>  <SCORE.INTRA.VDW>
-1.21456

>  <SCORE.INTRA.VDW.0>
-1.94569

>  <SCORE.INTRA.norm>
0.0773809

>  <SCORE.RESTR>
0.678446

>  <SCORE.RESTR.CAVITY>
0.678446

>  <SCORE.RESTR.norm>
0.0199543

>  <SCORE.SYSTEM>
-0.731968

>  <SCORE.SYSTEM.CONST>
0

>  <SCORE.SYSTEM.DIHEDRAL>
0.804025

>  <SCORE.SYSTEM.VDW>
-1.13398

>  <SCORE.SYSTEM.norm>
-0.0215285

>  <SCORE.heavy>
34

>  <SCORE.norm>
-0.825751

$$$$
RAL.pdb
  rDOCK(R)          3D
libRbt.so/2013.1/901 2013/11/27
 36 40  0  0  0  0  0  0  0  0999 V2000
   28.8118   -1.6412   27.9887 C   0  0  0  0  0  0
   27.4642   -1.4104   28.0919 C   0  0  0  0  0  0
   26.9502   -0.1726   28.3608 C   0  0  0  0  0  0
   25.5824   -0.0688   28.4086 O   0  0  0  0  0  0
   27.8217    0.9108   28.5209 C   0  0  0  0  0  0
   29.1686    0.6820   28.3826 C   0  0  0  0  0  0
   30.4361    1.7277   28.5597 S   0  0  0  0  0  0
   31.6861    0.6447   28.2219 C   0  0  0  0  0  0
   33.1316    0.9974   28.3116 C   0  0  0  0  0  0
   33.7802    0.5429   29.4434 C   0  0  0  0  0  0
   35.1444    0.7595   29.5508 C   0  0  0  0  0  0
   35.8441    1.4465   28.5784 C   0  0  0  0  0  0
   37.2167    1.6122   28.7722 O   0  0  0  0  0  0
   35.2039    1.8589   27.4283 C   0  0  0  0  0  0
   33.8388    1.6224   27.3217 C   0  0  0  0  0  0
   29.6773   -0.6217   28.1188 C   0  0  0  0  0  0
   31.1303   -0.6413   28.0551 C   0  0  0  0  0  0
   31.8470   -1.8039   27.8445 C   0  0  0  0  0  0
   32.3119   -2.4139   28.8156 O   0  0  0  0  0  0
   32.0998   -2.3500   26.5066 C   0  0  0  0  0  0
   33.2391   -3.0862   26.2508 C   0  0  0  0  0  0
   33.5144   -3.6017   24.9991 C   0  0  0  0  0  0
   32.6247   -3.3426   23.9579 C   0  0  0  0  0  0
   31.4756   -2.6128   24.2044 C   0  0  0  0  0  0
   31.2110   -2.1308   25.4754 C   0  0  0  0  0  0
   32.6912   -3.7317   22.6527 O   0  0  0  0  0  0
   31.8481   -4.8067   22.2673 C   0  0  0  0  0  0
   31.9216   -5.0220   20.7791 C   0  0  0  0  0  0
   31.1900   -4.3528   19.7206 N   0  0  0  0  0  0
   32.0836   -3.3734   19.0700 C   0  0  0  0  0  0
   31.4687   -2.7010   17.8260 C   0  0  0  0  0  0
   30.2306   -1.9273   18.3074 C   0  0  0  0  0  0
   29.2645   -3.0433   18.8116 C   0  0  0  0  0  0
   29.9200   -3.6771   20.0510 C   0  0  0  0  0  0
   25.1279   -0.2327   29.2114 H   0  0  0  0  0  0
   37.8195    0.9971   28.4030 H   0  0  0  0  0  0
  1  2  2  0  0  0
  1 16  1  0  0  0
  2  3  1  0  0  0
  3  4  1  0  0  0
  3  5  2  0  0  0
  4 35  1  0  0  0
  5  6  1  0  0  0
  6  7  1  0  0  0
  6 16  2  0  0  0
  7  8  1  0  0  0
  8  9  1  0  0  0
  8 17  2  0  0  0
  9 10  2  0  0  0
  9 15  1  0  0  0
 10 11  1  0  0  0
 11 12  2  0  0  0
 12 13  1  0  0  0
 12 14  1  0  0  0
 13 36  1  0  0  0
 14 15  2  0  0  0
 16 17  1  0  0  0
 17 18  1  0  0  0
 18 19  2  0  0  0
 18 20  1  0  0  0
 20 21  2  0  0  0
 20 25  1  0  0  0
 21 22  1  0  0  0
 22 23  2  0  0  0
 23 24  1  0  0  0
 23 26  1  0  0  0
 24 25  2  0  0  0
 26 27  1  0  0  0
 27 28  1  0  0  0
 28 29  1  0  0  0
 29 30  1  0  0  0
 29 34  1  0  0  0
 30 31  1  0  0  0
 31 32  1  0  0  0
 32 33  1  0  0  0
 33 34  1  0  0  0
M  END
>  <CHROM.0>
-139.51891186,-60.56480275,-37.94336257

>  <CHROM.1>
87.59075114,102.13923842,93.51207009,83.86202938,150.41062853,103.25667362
173.89086275,-84.39656653,103.13010184,31.48441442,-1.26529298,25.60638156
1.48965175,0.06129847,1.12338609

>  <FORMUL>
      RAL    C28 H27 N1 O4 S1

>  <HET>
 RAL  A 600      34

>  <HETNAM>
     RAL RALOXIFENE

>  <Name>
RAL.pdb

>  <RI>
0

>  <Rbt.Current_Directory>
/home/malgorzata/Desktop/rDOCK_IFD/Wyniki/6c_estrogen_receptor

>  <Rbt.Executable>
rbdock ($Id: //depot/dev/client3/rdock/2013.1/src/exe/rbdock.cxx#4 $)

>  <Rbt.Library>
libRbt.so (2013.1, Build901 2013/11/27)

>  <Rbt.Parameter_File>
/home/malgorzata/Desktop/rDock_2013.1_src/data/scripts/soft_docking.prm

>  <Rbt.Receptor>
cavity.prm

>  <SCORE>
-32.5261

>  <SCORE.INTER>
-35.5029

>  <SCORE.INTER.CONST>
1

>  <SCORE.INTER.POLAR>
-0.349934

>  <SCORE.INTER.REPUL>
0.116128

>  <SCORE.INTER.ROT>
7

>  <SCORE.INTER.VDW>
-47.2938

>  <SCORE.INTER.norm>
-1.0442

>  <SCORE.INTRA>
3.74934

>  <SCORE.INTRA.DIHEDRAL>
25.8183

>  <SCORE.INTRA.DIHEDRAL.0>
18.358

>  <SCORE.INTRA.POLAR>
0

>  <SCORE.INTRA.POLAR.0>
0

>  <SCORE.INTRA.REPUL>
0

>  <SCORE.INTRA.REPUL.0>
0

>  <SCORE.INTRA.VDW>
-1.41432

>  <SCORE.INTRA.VDW.0>
-1.94569

>  <SCORE.INTRA.norm>
0.110275

>  <SCORE.RESTR>
0

>  <SCORE.RESTR.CAVITY>
0

>  <SCORE.RESTR.norm>
0

>  <SCORE.SYSTEM>
-0.772538

>  <SCORE.SYSTEM.CONST>
0

>  <SCORE.SYSTEM.DIHEDRAL>
0.80215

>  <SCORE.SYSTEM.VDW>
-1.17361

>  <SCORE.SYSTEM.norm>
-0.0227217

>  <SCORE.heavy>
34

>  <SCORE.norm>
-0.956651

$$$$
