REMARK  2 active torsions:
REMARK  status: ('A' for Active; 'I' for Inactive)
REMARK    1  A    between atoms: N5_12  and  C11_25 
REMARK    2  A    between atoms: C8_22  and  C9_23 
ROOT
HETATM    1 BR1  HMD A 400       1.448  30.554   6.091  1.00 63.13    -0.031 Br
HETATM    2  O1  HMD A 400       5.578  27.884   3.972  1.00 45.50    -0.266 OA
HETATM    3  N1  HMD A 400       3.376  28.728   5.300  1.00 48.35    -0.345 N 
ATOM      4  H1  HMD A 400       3.598  29.309   4.492  1.00  0.00     0.167 HD
HETATM    5  N2  HMD A 400       5.330  25.712   4.656  1.00 41.03    -0.355 N 
ATOM      6  H2  HMD A 400       6.063  25.451   3.996  1.00  0.00     0.162 HD
HETATM    7  C1  HMD A 400       2.456  29.007   6.226  1.00 51.52     0.081 A 
HETATM    8  C2  HMD A 400       2.406  28.034   7.181  1.00 49.23     0.052 A 
HETATM    9  C3  HMD A 400       3.370  27.060   6.808  1.00 46.03     0.008 A 
HETATM   10  C4  HMD A 400       3.966  27.552   5.605  1.00 45.99     0.112 A 
HETATM   11  C5  HMD A 400       5.007  27.056   4.695  1.00 42.91     0.269 C 
HETATM   12  C6  HMD A 400       4.753  24.610   5.444  1.00 39.71     0.128 C 
HETATM   13  C7  HMD A 400       4.814  24.843   6.943  1.00 41.24     0.061 C 
HETATM   14  C8  HMD A 400       3.653  25.687   7.463  1.00 44.36    -0.011 C 
ENDROOT
BRANCH  14  15
HETATM   15  C9  HMD A 400       2.861  25.203   8.510  1.00 44.10     0.125 A 
HETATM   16  N4  HMD A 400       3.272  24.841   9.801  1.00 45.11    -0.186 N 
HETATM   17  C11 HMD A 400       2.196  24.478  10.523  1.00 46.60     0.679 A 
ATOM     18  H4  HMD A 400       4.235  24.853  10.140  1.00  0.00     0.184 HD
HETATM   19  N3  HMD A 400       1.052  24.510   9.831  1.00 47.18    -0.155 N 
HETATM   20  C10 HMD A 400       1.368  24.934   8.584  1.00 45.33     0.287 A 
ATOM     21  H3  HMD A 400       0.123  24.264  10.175  1.00  0.00     0.187 HD
HETATM   22  O2  HMD A 400       0.554  25.081   7.659  1.00 43.12    -0.265 OA
BRANCH  17  23
HETATM   23  N5  HMD A 400       2.304  24.122  11.789  1.00 49.07    -0.234 N 
ATOM     24  H52 HMD A 400       2.948  23.389  12.084  1.00  0.00     0.174 HD
ATOM     25  H51 HMD A 400       1.769  24.528  12.557  1.00  0.00     0.174 HD
ENDBRANCH  17  23
ENDBRANCH  14  15
TORSDOF 2
