REMARK  2 active torsions:
REMARK  status: ('A' for Active; 'I' for Inactive)
REMARK    1  A    between atoms: N5_12  and  C11_25 
REMARK    2  A    between atoms: C8_22  and  C9_23 
ROOT
HETATM    1 BR1  HMD A 400      -2.324  28.964   8.413  1.00 63.13    -0.031 Br
HETATM    2  O1  HMD A 400       1.820  30.890   5.621  1.00 45.50    -0.266 OA
HETATM    3  N1  HMD A 400       0.035  29.428   7.035  1.00 48.35    -0.345 N 
ATOM      4  H1  HMD A 400      -0.389  30.235   6.577  1.00  0.00     0.167 HD
HETATM    5  N2  HMD A 400       3.216  29.109   5.273  1.00 41.03    -0.355 N 
ATOM      6  H2  HMD A 400       3.741  29.685   4.616  1.00  0.00     0.162 HD
HETATM    7  C1  HMD A 400      -0.567  28.639   7.927  1.00 51.52     0.081 A 
HETATM    8  C2  HMD A 400       0.270  27.651   8.357  1.00 49.23     0.052 A 
HETATM    9  C3  HMD A 400       1.495  27.837   7.662  1.00 46.03     0.008 A 
HETATM   10  C4  HMD A 400       1.295  28.986   6.836  1.00 45.99     0.112 A 
HETATM   11  C5  HMD A 400       2.129  29.718   5.872  1.00 42.91     0.269 C 
HETATM   12  C6  HMD A 400       3.714  27.736   5.463  1.00 39.71     0.128 C 
HETATM   13  C7  HMD A 400       3.996  27.391   6.914  1.00 41.24     0.061 C 
HETATM   14  C8  HMD A 400       2.752  26.935   7.671  1.00 44.36    -0.011 C 
ENDROOT
BRANCH  14  15
HETATM   15  C9  HMD A 400       2.764  25.710   8.348  1.00 44.10     0.125 A 
HETATM   16  N4  HMD A 400       2.688  24.423   7.794  1.00 45.11    -0.186 N 
HETATM   17  C11 HMD A 400       2.787  23.511   8.779  1.00 46.60     0.679 A 
ATOM     18  H4  HMD A 400       2.575  24.212   6.802  1.00  0.00     0.184 HD
HETATM   19  N3  HMD A 400       2.885  24.050  10.000  1.00 47.18    -0.155 N 
HETATM   20  C10 HMD A 400       2.868  25.393   9.829  1.00 45.33     0.287 A 
ATOM     21  H3  HMD A 400       2.957  23.548  10.885  1.00  0.00     0.187 HD
HETATM   22  O2  HMD A 400       2.936  26.224  10.748  1.00 43.12    -0.265 OA
BRANCH  17  23
HETATM   23  N5  HMD A 400       2.778  22.217   8.523  1.00 49.07    -0.234 N 
ATOM     24  H52 HMD A 400       2.192  21.824   7.786  1.00  0.00     0.174 HD
ATOM     25  H51 HMD A 400       3.329  21.519   9.023  1.00  0.00     0.174 HD
ENDBRANCH  17  23
ENDBRANCH  14  15
TORSDOF 2
