REMARK  2 active torsions:
REMARK  status: ('A' for Active; 'I' for Inactive)
REMARK    1  A    between atoms: N5_12  and  C11_25 
REMARK    2  A    between atoms: C8_22  and  C9_23 
ROOT
HETATM    1 BR1  HMD A 400      -2.269  29.012   8.542  1.00 63.13    -0.031 Br
HETATM    2  O1  HMD A 400       1.822  30.891   5.642  1.00 45.50    -0.266 OA
HETATM    3  N1  HMD A 400       0.058  29.450   7.103  1.00 48.35    -0.345 N 
ATOM      4  H1  HMD A 400      -0.368  30.262   6.656  1.00  0.00     0.167 HD
HETATM    5  N2  HMD A 400       3.189  29.095   5.259  1.00 41.03    -0.355 N 
ATOM      6  H2  HMD A 400       3.703  29.665   4.587  1.00  0.00     0.162 HD
HETATM    7  C1  HMD A 400      -0.529  28.668   8.011  1.00 51.52     0.081 A 
HETATM    8  C2  HMD A 400       0.308  27.672   8.420  1.00 49.23     0.052 A 
HETATM    9  C3  HMD A 400       1.517  27.843   7.693  1.00 46.03     0.008 A 
HETATM   10  C4  HMD A 400       1.309  28.994   6.872  1.00 45.99     0.112 A 
HETATM   11  C5  HMD A 400       2.124  29.716   5.886  1.00 42.91     0.269 C 
HETATM   12  C6  HMD A 400       3.677  27.716   5.436  1.00 39.71     0.128 C 
HETATM   13  C7  HMD A 400       3.992  27.369   6.880  1.00 41.24     0.061 C 
HETATM   14  C8  HMD A 400       2.763  26.927   7.670  1.00 44.36    -0.011 C 
ENDROOT
BRANCH  14  15
HETATM   15  C9  HMD A 400       2.780  25.703   8.347  1.00 44.10     0.125 A 
HETATM   16  N4  HMD A 400       2.713  24.415   7.794  1.00 45.11    -0.186 N 
HETATM   17  C11 HMD A 400       2.814  23.504   8.779  1.00 46.60     0.679 A 
ATOM     18  H4  HMD A 400       2.605  24.203   6.802  1.00  0.00     0.184 HD
HETATM   19  N3  HMD A 400       2.904  24.044  10.000  1.00 47.18    -0.155 N 
HETATM   20  C10 HMD A 400       2.880  25.387   9.829  1.00 45.33     0.287 A 
ATOM     21  H3  HMD A 400       2.976  23.542  10.886  1.00  0.00     0.187 HD
HETATM   22  O2  HMD A 400       2.940  26.218  10.748  1.00 43.12    -0.265 OA
BRANCH  17  23
HETATM   23  N5  HMD A 400       2.812  22.210   8.524  1.00 49.07    -0.234 N 
ATOM     24  H52 HMD A 400       2.169  21.801   7.845  1.00  0.00     0.174 HD
ATOM     25  H51 HMD A 400       3.425  21.526   8.968  1.00  0.00     0.174 HD
ENDBRANCH  17  23
ENDBRANCH  14  15
TORSDOF 2
