REMARK  2 active torsions:
REMARK  status: ('A' for Active; 'I' for Inactive)
REMARK    1  A    between atoms: N5_12  and  C11_25 
REMARK    2  A    between atoms: C8_22  and  C9_23 
ROOT
HETATM    1 BR1  HMD A 400      -2.302  28.907   8.415  1.00 63.13    -0.031 Br
HETATM    2  O1  HMD A 400       1.822  30.889   5.632  1.00 45.50    -0.266 OA
HETATM    3  N1  HMD A 400       0.051  29.401   7.036  1.00 48.35    -0.345 N 
ATOM      4  H1  HMD A 400      -0.380  30.210   6.587  1.00  0.00     0.167 HD
HETATM    5  N2  HMD A 400       3.231  29.121   5.265  1.00 41.03    -0.355 N 
ATOM      6  H2  HMD A 400       3.750  29.707   4.612  1.00  0.00     0.162 HD
HETATM    7  C1  HMD A 400      -0.544  28.600   7.923  1.00 51.52     0.081 A 
HETATM    8  C2  HMD A 400       0.301  27.614   8.342  1.00 49.23     0.052 A 
HETATM    9  C3  HMD A 400       1.523  27.815   7.646  1.00 46.03     0.008 A 
HETATM   10  C4  HMD A 400       1.314  28.971   6.831  1.00 45.99     0.112 A 
HETATM   11  C5  HMD A 400       2.140  29.717   5.872  1.00 42.91     0.269 C 
HETATM   12  C6  HMD A 400       3.739  27.750   5.441  1.00 39.71     0.128 C 
HETATM   13  C7  HMD A 400       4.026  27.394   6.889  1.00 41.24     0.061 C 
HETATM   14  C8  HMD A 400       2.787  26.922   7.644  1.00 44.36    -0.011 C 
ENDROOT
BRANCH  14  15
HETATM   15  C9  HMD A 400       2.810  25.691   8.310  1.00 44.10     0.125 A 
HETATM   16  N4  HMD A 400       2.757  24.409   7.744  1.00 45.11    -0.186 N 
HETATM   17  C11 HMD A 400       2.859  23.489   8.721  1.00 46.60     0.679 A 
ATOM     18  H4  HMD A 400       2.657  24.206   6.749  1.00  0.00     0.184 HD
HETATM   19  N3  HMD A 400       2.938  24.018   9.947  1.00 47.18    -0.155 N 
HETATM   20  C10 HMD A 400       2.904  25.363   9.789  1.00 45.33     0.287 A 
ATOM     21  H3  HMD A 400       3.009  23.509  10.829  1.00  0.00     0.187 HD
HETATM   22  O2  HMD A 400       2.951  26.186  10.716  1.00 43.12    -0.265 OA
BRANCH  17  23
HETATM   23  N5  HMD A 400       2.870  22.197   8.453  1.00 49.07    -0.234 N 
ATOM     24  H52 HMD A 400       2.184  21.778   7.825  1.00  0.00     0.174 HD
ATOM     25  H51 HMD A 400       3.534  21.526   8.839  1.00  0.00     0.174 HD
ENDBRANCH  17  23
ENDBRANCH  14  15
TORSDOF 2
