REMARK  2 active torsions:
REMARK  status: ('A' for Active; 'I' for Inactive)
REMARK    1  A    between atoms: N5_12  and  C11_25 
REMARK    2  A    between atoms: C8_22  and  C9_23 
ROOT
HETATM    1 BR1  HMD A 400      -2.304  28.958   8.451  1.00 63.13    -0.031 Br
HETATM    2  O1  HMD A 400       1.822  30.896   5.641  1.00 45.50    -0.266 OA
HETATM    3  N1  HMD A 400       0.047  29.429   7.061  1.00 48.35    -0.345 N 
ATOM      4  H1  HMD A 400      -0.380  30.237   6.608  1.00  0.00     0.167 HD
HETATM    5  N2  HMD A 400       3.218  29.117   5.280  1.00 41.03    -0.355 N 
ATOM      6  H2  HMD A 400       3.739  29.696   4.620  1.00  0.00     0.162 HD
HETATM    7  C1  HMD A 400      -0.550  28.636   7.954  1.00 51.52     0.081 A 
HETATM    8  C2  HMD A 400       0.291  27.648   8.377  1.00 49.23     0.052 A 
HETATM    9  C3  HMD A 400       1.512  27.837   7.675  1.00 46.03     0.008 A 
HETATM   10  C4  HMD A 400       1.306  28.988   6.854  1.00 45.99     0.112 A 
HETATM   11  C5  HMD A 400       2.133  29.723   5.887  1.00 42.91     0.269 C 
HETATM   12  C6  HMD A 400       3.718  27.744   5.462  1.00 39.71     0.128 C 
HETATM   13  C7  HMD A 400       4.008  27.395   6.911  1.00 41.24     0.061 C 
HETATM   14  C8  HMD A 400       2.769  26.936   7.674  1.00 44.36    -0.011 C 
ENDROOT
BRANCH  14  15
HETATM   15  C9  HMD A 400       2.787  25.709   8.347  1.00 44.10     0.125 A 
HETATM   16  N4  HMD A 400       2.720  24.423   7.790  1.00 45.11    -0.186 N 
HETATM   17  C11 HMD A 400       2.822  23.509   8.772  1.00 46.60     0.679 A 
ATOM     18  H4  HMD A 400       2.612  24.215   6.797  1.00  0.00     0.184 HD
HETATM   19  N3  HMD A 400       2.912  24.045   9.995  1.00 47.18    -0.155 N 
HETATM   20  C10 HMD A 400       2.888  25.389   9.828  1.00 45.33     0.287 A 
ATOM     21  H3  HMD A 400       2.985  23.541  10.878  1.00  0.00     0.187 HD
HETATM   22  O2  HMD A 400       2.947  26.217  10.750  1.00 43.12    -0.265 OA
BRANCH  17  23
HETATM   23  N5  HMD A 400       2.821  22.216   8.512  1.00 49.07    -0.234 N 
ATOM     24  H52 HMD A 400       2.189  21.812   7.821  1.00  0.00     0.174 HD
ATOM     25  H51 HMD A 400       3.423  21.529   8.966  1.00  0.00     0.174 HD
ENDBRANCH  17  23
ENDBRANCH  14  15
TORSDOF 2
