REMARK  2 active torsions:
REMARK  status: ('A' for Active; 'I' for Inactive)
REMARK    1  A    between atoms: N5_12  and  C11_25 
REMARK    2  A    between atoms: C8_22  and  C9_23 
ROOT
HETATM    1 BR1  HMD A 400      23.120  26.871  28.136  1.00 63.13    -0.031 Br
HETATM    2  O1  HMD A 400      25.184  31.320  30.286  1.00 45.50    -0.266 OA
HETATM    3  N1  HMD A 400      24.542  29.157  28.792  1.00 48.35    -0.345 N 
ATOM      4  H1  HMD A 400      23.779  29.461  29.397  1.00  0.00     0.167 HD
HETATM    5  N2  HMD A 400      26.744  32.069  28.786  1.00 41.03    -0.355 N 
ATOM      6  H2  HMD A 400      26.800  32.936  29.320  1.00  0.00     0.162 HD
HETATM    7  C1  HMD A 400      24.565  28.027  28.082  1.00 51.52     0.081 A 
HETATM    8  C2  HMD A 400      25.729  27.908  27.381  1.00 49.23     0.052 A 
HETATM    9  C3  HMD A 400      26.490  29.072  27.672  1.00 46.03     0.008 A 
HETATM   10  C4  HMD A 400      25.692  29.833  28.581  1.00 45.99     0.112 A 
HETATM   11  C5  HMD A 400      25.860  31.121  29.268  1.00 42.91     0.269 C 
HETATM   12  C6  HMD A 400      27.615  31.988  27.601  1.00 39.71     0.128 C 
HETATM   13  C7  HMD A 400      28.521  30.770  27.600  1.00 41.24     0.061 C 
HETATM   14  C8  HMD A 400      27.838  29.518  27.057  1.00 44.36    -0.011 C 
ENDROOT
BRANCH  14  15
HETATM   15  C9  HMD A 400      28.432  28.805  26.010  1.00 44.10     0.125 A 
HETATM   16  N4  HMD A 400      27.950  27.650  25.376  1.00 45.11    -0.186 N 
HETATM   17  C11 HMD A 400      28.789  27.308  24.381  1.00 46.60     0.679 A 
ATOM     18  H4  HMD A 400      27.098  27.149  25.629  1.00  0.00     0.184 HD
HETATM   19  N3  HMD A 400      29.858  28.107  24.284  1.00 47.18    -0.155 N 
HETATM   20  C10 HMD A 400      29.725  29.046  25.251  1.00 45.33     0.287 A 
ATOM     21  H3  HMD A 400      30.623  28.025  23.614  1.00  0.00     0.187 HD
HETATM   22  O2  HMD A 400      30.537  29.959  25.467  1.00 43.12    -0.265 OA
BRANCH  17  23
HETATM   23  N5  HMD A 400      28.548  26.271  23.602  1.00 49.07    -0.234 N 
ATOM     24  H52 HMD A 400      29.184  26.012  22.848  1.00  0.00     0.174 HD
ATOM     25  H51 HMD A 400      27.733  25.662  23.676  1.00  0.00     0.174 HD
ENDBRANCH  17  23
ENDBRANCH  14  15
TORSDOF 2
