FXV.pdb
  rDOCK(R)          3D
libRbt.so/2013.1/901 2013/11/27
 38 40  0  0  0  0  0  0  0  0999 V2000
   -1.3572   25.2220   16.9140 C   0  0  0  0  0  0
   -2.6757   24.6626   16.8383 C   0  0  0  0  0  0
   -3.7951   25.5367   17.0893 C   0  0  0  0  0  0
   -3.5755   26.9178   17.4054 C   0  0  0  0  0  0
   -2.3081   27.4412   17.4762 N   0  0  0  0  0  0
   -1.2206   26.6057   17.2343 C   0  0  0  0  0  0
   -3.4700   20.8753   17.2029 C   0  0  0  0  0  0
   -3.2981   20.4050   15.8302 C   0  0  0  0  0  0
   -2.9132   21.3664   14.8276 C   0  0  0  0  0  0
   -2.7051   22.7400   15.1542 C   0  0  0  0  0  0
   -2.8743   23.2168   16.4966 C   0  0  0  0  0  0
   -3.2558   22.2625   17.5022 C   0  0  0  0  0  0
   -3.5101   19.0234   15.4130 C   0  0  0  0  0  0
   -3.0858   18.0990   16.2964 N   0  0  0  0  0  0
   -3.2428   16.6811   16.0922 C   0  0  0  0  0  0
   -4.2688   16.1717   17.1277 C   0  0  0  0  0  0
   -1.8241   16.0060   16.1944 C   0  0  0  0  0  0
   -1.3251   16.0710   17.6499 C   0  0  0  0  0  0
   -0.3205   15.1813   17.8740 O   0  0  0  0  0  0
   -0.7461   16.6212   15.1920 C   0  0  0  0  0  0
    1.6270   17.7432   15.4319 C   0  0  0  0  0  0
    2.5013   18.7567   16.0199 C   0  0  0  0  0  0
    1.9310   19.6988   16.9681 C   0  0  0  0  0  0
    0.5437   19.6359   17.3151 C   0  0  0  0  0  0
   -0.3082   18.6326   16.7301 C   0  0  0  0  0  0
    0.2072   17.6726   15.7819 C   0  0  0  0  0  0
    3.9224   18.8317   15.6726 C   0  0  0  0  0  0
    4.3419   18.7348   14.4077 N   0  0  0  0  0  0
    4.8278   19.0083   16.6515 N   0  0  0  0  0  0
   -1.7742   16.7976   18.4669 O   0  0  0  0  0  0
   -4.0587   18.7204   14.3366 O   0  0  0  0  0  0
   -0.0239   14.6756   19.1780 C   0  0  0  0  0  0
   -2.0972   28.7534   17.7772 O   0  0  0  0  0  0
   -2.6469   18.4072   17.1221 H   0  0  0  0  0  0
    3.6899   18.6055   13.6814 H   0  0  0  0  0  0
    4.5324   19.0812   17.5878 H   0  0  0  0  0  0
    5.7858   19.0645   16.4317 H   0  0  0  0  0  0
   -1.6126   29.1777   17.0519 H   0  0  0  0  0  0
  1  2  1  0  0  0
  1  6  2  0  0  0
  2  3  1  0  0  0
  2 11  1  0  0  0
  3  4  2  0  0  0
  4  5  1  0  0  0
  5  6  1  0  0  0
  5 33  1  0  0  0
  7  8  2  0  0  0
  7 12  1  0  0  0
  8  9  1  0  0  0
  8 13  1  0  0  0
  9 10  2  0  0  0
 10 11  1  0  0  0
 11 12  2  0  0  0
 13 14  1  0  0  0
 13 31  2  0  0  0
 14 15  1  0  0  0
 14 34  1  0  0  0
 15 16  1  0  0  0
 15 17  1  0  0  0
 17 18  1  0  0  0
 17 20  1  0  0  0
 18 19  1  0  0  0
 18 30  2  0  0  0
 19 32  1  0  0  0
 20 26  1  0  0  0
 21 22  2  0  0  0
 21 26  1  0  0  0
 22 23  1  0  0  0
 22 27  1  0  0  0
 23 24  2  0  0  0
 24 25  1  0  0  0
 25 26  2  0  0  0
 27 28  2  0  0  0
 27 29  1  0  0  0
 28 35  1  0  0  0
 29 36  1  0  0  0
 29 37  1  0  0  0
 33 38  1  0  0  0
M  END
>  <CHROM.0>
-53.21609725,-51.81757107,69.51652101,-5.65559789,-60.66992230,-7.61148830
-84.37708141

>  <CHROM.1>
-74.72643010,-121.09907438,-38.64951604,-111.43033970,69.29154357,161.98729190
97.87482680,-155.97298751,140.84627731,44.68856471,-1.20062387,20.23264453
16.58962847,-1.84033934,-0.05000433,-3.11706488

>  <FORMUL>
      FXV    C25 H27 N4 O4 1+

>  <HET>
 FXV  A 401      33

>  <HETNAM>
     FXV METHYL-3-(4'-N-OXOPYRIDYLPHENOYL)-3-METHYL-2-(M-AMIDINO
   2 FXV BENZYL)-PROPIONATE

>  <HETSYN>
     FXV FXV673

>  <Name>
FXV.pdb

>  <RI>
2.75539e+07

>  <Rbt.Current_Directory>
/home/malgorzata/Desktop/rDOCK_IFD/Wyniki/8_factor_Xa2

>  <Rbt.Executable>
rbdock ($Id: //depot/dev/client3/rdock/2013.1/src/exe/rbdock.cxx#4 $)

>  <Rbt.Library>
libRbt.so (2013.1, Build901 2013/11/27)

>  <Rbt.Parameter_File>
/home/malgorzata/Desktop/rDock_2013.1_src/data/scripts/soft_docking.prm

>  <Rbt.Receptor>
cavity.prm

>  <SCORE>
-26.5134

>  <SCORE.INTER>
-26.7398

>  <SCORE.INTER.CONST>
1

>  <SCORE.INTER.POLAR>
-1.65326

>  <SCORE.INTER.REPUL>
0

>  <SCORE.INTER.ROT>
9

>  <SCORE.INTER.VDW>
-35.5187

>  <SCORE.INTER.norm>
-0.810298

>  <SCORE.INTRA>
0.969249

>  <SCORE.INTRA.DIHEDRAL>
17.3144

>  <SCORE.INTRA.DIHEDRAL.0>
8.37942

>  <SCORE.INTRA.POLAR>
0

>  <SCORE.INTRA.POLAR.0>
0

>  <SCORE.INTRA.REPUL>
0

>  <SCORE.INTRA.REPUL.0>
0

>  <SCORE.INTRA.VDW>
-2.49363

>  <SCORE.INTRA.VDW.0>
-0.0658046

>  <SCORE.INTRA.norm>
0.0293712

>  <SCORE.RESTR>
0.0604644

>  <SCORE.RESTR.CAVITY>
0.0604644

>  <SCORE.RESTR.norm>
0.00183225

>  <SCORE.SYSTEM>
-0.803306

>  <SCORE.SYSTEM.CONST>
0

>  <SCORE.SYSTEM.DIHEDRAL>
11.3232

>  <SCORE.SYSTEM.POLAR>
-1.29805

>  <SCORE.SYSTEM.VDW>
-2.05156

>  <SCORE.SYSTEM.norm>
-0.0243426

>  <SCORE.heavy>
33

>  <SCORE.norm>
-0.803437

$$$$
FXV.pdb
  rDOCK(R)          3D
libRbt.so/2013.1/901 2013/11/27
 38 40  0  0  0  0  0  0  0  0999 V2000
   -1.2049   26.1395   16.8894 C   0  0  0  0  0  0
   -2.2968   25.7805   17.7474 C   0  0  0  0  0  0
   -3.2680   26.7982   18.0656 C   0  0  0  0  0  0
   -3.1272   28.1217   17.5328 C   0  0  0  0  0  0
   -2.0765   28.4535   16.7134 N   0  0  0  0  0  0
   -1.1340   27.4776   16.3992 C   0  0  0  0  0  0
   -1.9783   22.7040   20.1015 C   0  0  0  0  0  0
   -2.6951   21.6795   19.3454 C   0  0  0  0  0  0
   -3.2545   22.0463   18.0686 C   0  0  0  0  0  0
   -3.1196   23.3686   17.5490 C   0  0  0  0  0  0
   -2.4224   24.3858   18.2820 C   0  0  0  0  0  0
   -1.8599   24.0259   19.5553 C   0  0  0  0  0  0
   -2.8921   20.3127   19.8156 C   0  0  0  0  0  0
   -1.8383   19.4956   19.6233 N   0  0  0  0  0  0
   -1.8158   18.1211   20.0555 C   0  0  0  0  0  0
   -0.9670   18.0513   21.3436 C   0  0  0  0  0  0
   -1.2742   17.2379   18.8699 C   0  0  0  0  0  0
    0.0880   17.7822   18.4012 C   0  0  0  0  0  0
    0.0262   19.1130   18.1251 O   0  0  0  0  0  0
   -2.2910   17.1107   17.6471 C   0  0  0  0  0  0
   -1.9792   15.1717   15.8889 C   0  0  0  0  0  0
   -1.4075   14.6644   14.6427 C   0  0  0  0  0  0
   -0.5630   15.5482   13.8568 C   0  0  0  0  0  0
   -0.3002   16.8859   14.2935 C   0  0  0  0  0  0
   -0.8682   17.3749   15.5235 C   0  0  0  0  0  0
   -1.7150   16.5386   16.3420 C   0  0  0  0  0  0
   -1.6692   13.2978   14.1847 C   0  0  0  0  0  0
   -2.4095   13.0507   13.1001 N   0  0  0  0  0  0
   -1.1464   12.2655   14.8704 N   0  0  0  0  0  0
    1.0577   17.1163   18.2861 O   0  0  0  0  0  0
   -3.9414   19.9347   20.3702 O   0  0  0  0  0  0
    1.1912   19.8875   17.8300 C   0  0  0  0  0  0
   -1.9405   29.7111   16.2066 O   0  0  0  0  0  0
   -1.0447   19.8553   19.1649 H   0  0  0  0  0  0
   -2.7981   13.7969   12.5890 H   0  0  0  0  0  0
   -0.5991   12.4334   15.6714 H   0  0  0  0  0  0
   -1.3111   11.3420   14.5714 H   0  0  0  0  0  0
   -1.0842   29.7878   15.7574 H   0  0  0  0  0  0
  1  2  1  0  0  0
  1  6  2  0  0  0
  2  3  1  0  0  0
  2 11  1  0  0  0
  3  4  2  0  0  0
  4  5  1  0  0  0
  5  6  1  0  0  0
  5 33  1  0  0  0
  7  8  2  0  0  0
  7 12  1  0  0  0
  8  9  1  0  0  0
  8 13  1  0  0  0
  9 10  2  0  0  0
 10 11  1  0  0  0
 11 12  2  0  0  0
 13 14  1  0  0  0
 13 31  2  0  0  0
 14 15  1  0  0  0
 14 34  1  0  0  0
 15 16  1  0  0  0
 15 17  1  0  0  0
 17 18  1  0  0  0
 17 20  1  0  0  0
 18 19  1  0  0  0
 18 30  2  0  0  0
 19 32  1  0  0  0
 20 26  1  0  0  0
 21 22  2  0  0  0
 21 26  1  0  0  0
 22 23  1  0  0  0
 22 27  1  0  0  0
 23 24  2  0  0  0
 24 25  1  0  0  0
 25 26  2  0  0  0
 27 28  2  0  0  0
 27 29  1  0  0  0
 28 35  1  0  0  0
 29 36  1  0  0  0
 29 37  1  0  0  0
 33 38  1  0  0  0
M  END
>  <CHROM.0>
-91.64229782,-154.74082838,-111.53747207,-26.67027583,-60.66992230,-43.55141005
-50.56496662

>  <CHROM.1>
-88.24829987,172.23026147,-81.13456944,-102.51561351,54.44403963,-52.40189911
166.71524433,172.17448658,104.36448414,111.48857423,-1.63840216,20.28538970
17.45056101,-2.63132780,-1.47027404,2.24067471

>  <FORMUL>
      FXV    C25 H27 N4 O4 1+

>  <HET>
 FXV  A 401      33

>  <HETNAM>
     FXV METHYL-3-(4'-N-OXOPYRIDYLPHENOYL)-3-METHYL-2-(M-AMIDINO
   2 FXV BENZYL)-PROPIONATE

>  <HETSYN>
     FXV FXV673

>  <Name>
FXV.pdb

>  <RI>
2.75539e+07

>  <Rbt.Current_Directory>
/home/malgorzata/Desktop/rDOCK_IFD/Wyniki/8_factor_Xa2

>  <Rbt.Executable>
rbdock ($Id: //depot/dev/client3/rdock/2013.1/src/exe/rbdock.cxx#4 $)

>  <Rbt.Library>
libRbt.so (2013.1, Build901 2013/11/27)

>  <Rbt.Parameter_File>
/home/malgorzata/Desktop/rDock_2013.1_src/data/scripts/soft_docking.prm

>  <Rbt.Receptor>
cavity.prm

>  <SCORE>
-28.4584

>  <SCORE.INTER>
-25.5675

>  <SCORE.INTER.CONST>
1

>  <SCORE.INTER.POLAR>
-1.40992

>  <SCORE.INTER.REPUL>
0.0156494

>  <SCORE.INTER.ROT>
9

>  <SCORE.INTER.VDW>
-35.252

>  <SCORE.INTER.norm>
-0.774772

>  <SCORE.INTRA>
0.169051

>  <SCORE.INTRA.DIHEDRAL>
20.088

>  <SCORE.INTRA.DIHEDRAL.0>
8.37942

>  <SCORE.INTRA.POLAR>
-0.298003

>  <SCORE.INTRA.POLAR.0>
0

>  <SCORE.INTRA.REPUL>
0

>  <SCORE.INTRA.REPUL.0>
0

>  <SCORE.INTRA.VDW>
-2.83534

>  <SCORE.INTRA.VDW.0>
-0.0658046

>  <SCORE.INTRA.norm>
0.00512275

>  <SCORE.RESTR>
0.346149

>  <SCORE.RESTR.CAVITY>
0.346149

>  <SCORE.RESTR.norm>
0.0104894

>  <SCORE.SYSTEM>
-3.40616

>  <SCORE.SYSTEM.CONST>
0

>  <SCORE.SYSTEM.DIHEDRAL>
8.55556

>  <SCORE.SYSTEM.POLAR>
-1.29805

>  <SCORE.SYSTEM.VDW>
-3.27059

>  <SCORE.SYSTEM.norm>
-0.103217

>  <SCORE.heavy>
33

>  <SCORE.norm>
-0.862377

$$$$
FXV.pdb
  rDOCK(R)          3D
libRbt.so/2013.1/901 2013/11/27
 38 40  0  0  0  0  0  0  0  0999 V2000
   -3.1855   25.2099   17.0542 C   0  0  0  0  0  0
   -1.9790   24.9787   17.7944 C   0  0  0  0  0  0
   -1.0646   26.0822   17.9563 C   0  0  0  0  0  0
   -1.3693   27.3616   17.3854 C   0  0  0  0  0  0
   -2.5274   27.5700   16.6776 N   0  0  0  0  0  0
   -3.4174   26.5111   16.5167 C   0  0  0  0  0  0
   -1.1141   22.2115   20.3832 C   0  0  0  0  0  0
   -1.1675   21.0079   19.5564 C   0  0  0  0  0  0
   -1.4817   21.1597   18.1579 C   0  0  0  0  0  0
   -1.7366   22.4427   17.5871 C   0  0  0  0  0  0
   -1.6920   23.6324   18.3874 C   0  0  0  0  0  0
   -1.3767   23.4883   19.7828 C   0  0  0  0  0  0
   -0.9383   19.6611   20.0677 C   0  0  0  0  0  0
   -0.2148   18.8675   19.2542 N   0  0  0  0  0  0
    0.1575   17.5176   19.5946 C   0  0  0  0  0  0
    1.6750   17.3757   19.3462 C   0  0  0  0  0  0
   -0.7353   16.5305   18.7534 C   0  0  0  0  0  0
   -0.9408   15.2227   19.5401 C   0  0  0  0  0  0
   -1.9760   15.3244   20.4171 O   0  0  0  0  0  0
   -0.1660   16.2359   17.2924 C   0  0  0  0  0  0
   -0.9591   14.9964   15.1055 C   0  0  0  0  0  0
   -1.9775   14.7353   14.0896 C   0  0  0  0  0  0
   -3.2522   15.4256   14.1920 C   0  0  0  0  0  0
   -3.5040   16.3382   15.2658 C   0  0  0  0  0  0
   -2.4930   16.5884   16.2607 C   0  0  0  0  0  0
   -1.2094   15.9283   16.2065 C   0  0  0  0  0  0
   -1.7322   13.8034   12.9863 C   0  0  0  0  0  0
   -2.1221   14.0759   11.7377 N   0  0  0  0  0  0
   -1.0932   12.6464   13.2355 N   0  0  0  0  0  0
   -0.2694   14.2598   19.4016 O   0  0  0  0  0  0
   -1.3584   19.2799   21.1766 O   0  0  0  0  0  0
   -2.2697   14.3043   21.3748 C   0  0  0  0  0  0
   -2.8185   28.7850   16.1336 O   0  0  0  0  0  0
    0.0738   19.2274   18.3844 H   0  0  0  0  0  0
   -2.5907   14.9191   11.5413 H   0  0  0  0  0  0
   -0.8004   12.4331   14.1509 H   0  0  0  0  0  0
   -0.9183   12.0128   12.5025 H   0  0  0  0  0  0
   -2.0121   29.1733   15.7595 H   0  0  0  0  0  0
  1  2  1  0  0  0
  1  6  2  0  0  0
  2  3  1  0  0  0
  2 11  1  0  0  0
  3  4  2  0  0  0
  4  5  1  0  0  0
  5  6  1  0  0  0
  5 33  1  0  0  0
  7  8  2  0  0  0
  7 12  1  0  0  0
  8  9  1  0  0  0
  8 13  1  0  0  0
  9 10  2  0  0  0
 10 11  1  0  0  0
 11 12  2  0  0  0
 13 14  1  0  0  0
 13 31  2  0  0  0
 14 15  1  0  0  0
 14 34  1  0  0  0
 15 16  1  0  0  0
 15 17  1  0  0  0
 17 18  1  0  0  0
 17 20  1  0  0  0
 18 19  1  0  0  0
 18 30  2  0  0  0
 19 32  1  0  0  0
 20 26  1  0  0  0
 21 22  2  0  0  0
 21 26  1  0  0  0
 22 23  1  0  0  0
 22 27  1  0  0  0
 23 24  2  0  0  0
 24 25  1  0  0  0
 25 26  2  0  0  0
 27 28  2  0  0  0
 27 29  1  0  0  0
 28 35  1  0  0  0
 29 36  1  0  0  0
 29 37  1  0  0  0
 33 38  1  0  0  0
M  END
>  <CHROM.0>
173.65144772,-42.40826796,38.85680319,60.70083580,-60.66992230,170.71699769
-128.35075752

>  <CHROM.1>
52.80199506,40.12520628,-139.62899852,-130.08578161,-150.22708946,84.56819702
-149.83196061,-172.44695677,-146.38303892,-138.34132324,-1.51147030,19.33859460
17.55626275,1.82048442,-1.32331556,0.36031327

>  <FORMUL>
      FXV    C25 H27 N4 O4 1+

>  <HET>
 FXV  A 401      33

>  <HETNAM>
     FXV METHYL-3-(4'-N-OXOPYRIDYLPHENOYL)-3-METHYL-2-(M-AMIDINO
   2 FXV BENZYL)-PROPIONATE

>  <HETSYN>
     FXV FXV673

>  <Name>
FXV.pdb

>  <RI>
2.75539e+07

>  <Rbt.Current_Directory>
/home/malgorzata/Desktop/rDOCK_IFD/Wyniki/8_factor_Xa2

>  <Rbt.Executable>
rbdock ($Id: //depot/dev/client3/rdock/2013.1/src/exe/rbdock.cxx#4 $)

>  <Rbt.Library>
libRbt.so (2013.1, Build901 2013/11/27)

>  <Rbt.Parameter_File>
/home/malgorzata/Desktop/rDock_2013.1_src/data/scripts/soft_docking.prm

>  <Rbt.Receptor>
cavity.prm

>  <SCORE>
-30.4549

>  <SCORE.INTER>
-26.3829

>  <SCORE.INTER.CONST>
1

>  <SCORE.INTER.POLAR>
-1.93677

>  <SCORE.INTER.REPUL>
0.293485

>  <SCORE.INTER.ROT>
9

>  <SCORE.INTER.VDW>
-35.6653

>  <SCORE.INTER.norm>
-0.799481

>  <SCORE.INTRA>
2.04851

>  <SCORE.INTRA.DIHEDRAL>
14.5738

>  <SCORE.INTRA.DIHEDRAL.0>
8.37942

>  <SCORE.INTRA.POLAR>
0

>  <SCORE.INTRA.POLAR.0>
0

>  <SCORE.INTRA.REPUL>
0

>  <SCORE.INTRA.REPUL.0>
0

>  <SCORE.INTRA.VDW>
-0.866263

>  <SCORE.INTRA.VDW.0>
-0.0658046

>  <SCORE.INTRA.norm>
0.0620759

>  <SCORE.RESTR>
0.098271

>  <SCORE.RESTR.CAVITY>
0.098271

>  <SCORE.RESTR.norm>
0.00297791

>  <SCORE.SYSTEM>
-6.2188

>  <SCORE.SYSTEM.CONST>
0

>  <SCORE.SYSTEM.DIHEDRAL>
3.54585

>  <SCORE.SYSTEM.POLAR>
-1.29805

>  <SCORE.SYSTEM.REPUL>
0.00259577

>  <SCORE.SYSTEM.VDW>
-3.59134

>  <SCORE.SYSTEM.norm>
-0.188448

>  <SCORE.heavy>
33

>  <SCORE.norm>
-0.922876

$$$$
FXV.pdb
  rDOCK(R)          3D
libRbt.so/2013.1/901 2013/11/27
 38 40  0  0  0  0  0  0  0  0999 V2000
   -1.0642   14.6536   16.6760 C   0  0  0  0  0  0
   -1.6256   15.2210   15.4844 C   0  0  0  0  0  0
   -1.9455   14.3283   14.3977 C   0  0  0  0  0  0
   -1.7001   12.9213   14.5236 C   0  0  0  0  0  0
   -1.1608   12.3903   15.6693 N   0  0  0  0  0  0
   -0.8495   13.2438   16.7247 C   0  0  0  0  0  0
   -3.4856   18.6134   15.1109 C   0  0  0  0  0  0
   -2.3848   19.5671   15.2286 C   0  0  0  0  0  0
   -1.0544   19.0464   15.4199 C   0  0  0  0  0  0
   -0.8080   17.6427   15.4952 C   0  0  0  0  0  0
   -1.8793   16.6949   15.3856 C   0  0  0  0  0  0
   -3.2086   17.2076   15.1922 C   0  0  0  0  0  0
   -2.5566   21.0149   15.1812 C   0  0  0  0  0  0
   -1.6649   21.7102   15.9136 N   0  0  0  0  0  0
   -1.6371   23.1501   15.9652 C   0  0  0  0  0  0
   -0.4010   23.6214   15.1688 C   0  0  0  0  0  0
   -1.6457   23.5917   17.4764 C   0  0  0  0  0  0
   -1.6034   25.1286   17.5653 C   0  0  0  0  0  0
   -2.8496   25.6683   17.4842 O   0  0  0  0  0  0
   -0.4782   22.9361   18.3440 C   0  0  0  0  0  0
   -0.3672   20.6584   19.6659 C   0  0  0  0  0  0
   -0.8191   19.7984   20.7584 C   0  0  0  0  0  0
   -1.8376   20.3041   21.6633 C   0  0  0  0  0  0
   -2.3830   21.6161   21.4886 C   0  0  0  0  0  0
   -1.9308   22.4545   20.4082 C   0  0  0  0  0  0
   -0.9203   22.0013   19.4810 C   0  0  0  0  0  0
   -0.2686   18.4542   20.9480 C   0  0  0  0  0  0
   -1.0584   17.3860   21.0907 N   0  0  0  0  0  0
    1.0662   18.2903   20.9734 N   0  0  0  0  0  0
   -0.6062   25.7534   17.6769 O   0  0  0  0  0  0
   -3.4425   21.5672   14.5017 O   0  0  0  0  0  0
   -3.0786   27.0777   17.5577 C   0  0  0  0  0  0
   -0.9261   11.0535   15.7905 O   0  0  0  0  0  0
   -0.9995   21.2101   16.4393 H   0  0  0  0  0  0
   -2.0371   17.4918   21.0740 H   0  0  0  0  0  0
    1.6598   19.0688   20.8695 H   0  0  0  0  0  0
    1.4496   17.3918   21.0961 H   0  0  0  0  0  0
    0.0212   10.9034   15.9355 H   0  0  0  0  0  0
  1  2  1  0  0  0
  1  6  2  0  0  0
  2  3  1  0  0  0
  2 11  1  0  0  0
  3  4  2  0  0  0
  4  5  1  0  0  0
  5  6  1  0  0  0
  5 33  1  0  0  0
  7  8  2  0  0  0
  7 12  1  0  0  0
  8  9  1  0  0  0
  8 13  1  0  0  0
  9 10  2  0  0  0
 10 11  1  0  0  0
 11 12  2  0  0  0
 13 14  1  0  0  0
 13 31  2  0  0  0
 14 15  1  0  0  0
 14 34  1  0  0  0
 15 16  1  0  0  0
 15 17  1  0  0  0
 17 18  1  0  0  0
 17 20  1  0  0  0
 18 19  1  0  0  0
 18 30  2  0  0  0
 19 32  1  0  0  0
 20 26  1  0  0  0
 21 22  2  0  0  0
 21 26  1  0  0  0
 22 23  1  0  0  0
 22 27  1  0  0  0
 23 24  2  0  0  0
 24 25  1  0  0  0
 25 26  2  0  0  0
 27 28  2  0  0  0
 27 29  1  0  0  0
 28 35  1  0  0  0
 29 36  1  0  0  0
 29 37  1  0  0  0
 33 38  1  0  0  0
M  END
>  <CHROM.0>
-66.82859301,13.57262925,-123.44959862,89.72328988,-60.66992230,-151.76339478
-57.30423865

>  <CHROM.1>
60.80735978,119.35373874,149.00366588,-107.63744413,179.48328796,85.80725393
-116.24481759,179.25754197,129.79140018,-129.22301919,-1.51926545,19.57958402
17.27690904,-1.42061370,-1.31069427,0.34019780

>  <FORMUL>
      FXV    C25 H27 N4 O4 1+

>  <HET>
 FXV  A 401      33

>  <HETNAM>
     FXV METHYL-3-(4'-N-OXOPYRIDYLPHENOYL)-3-METHYL-2-(M-AMIDINO
   2 FXV BENZYL)-PROPIONATE

>  <HETSYN>
     FXV FXV673

>  <Name>
FXV.pdb

>  <RI>
2.75539e+07

>  <Rbt.Current_Directory>
/home/malgorzata/Desktop/rDOCK_IFD/Wyniki/8_factor_Xa2

>  <Rbt.Executable>
rbdock ($Id: //depot/dev/client3/rdock/2013.1/src/exe/rbdock.cxx#4 $)

>  <Rbt.Library>
libRbt.so (2013.1, Build901 2013/11/27)

>  <Rbt.Parameter_File>
/home/malgorzata/Desktop/rDock_2013.1_src/data/scripts/soft_docking.prm

>  <Rbt.Receptor>
cavity.prm

>  <SCORE>
-21.8829

>  <SCORE.INTER>
-19.6023

>  <SCORE.INTER.CONST>
1

>  <SCORE.INTER.POLAR>
-1.20167

>  <SCORE.INTER.REPUL>
0.390661

>  <SCORE.INTER.ROT>
9

>  <SCORE.INTER.VDW>
-31.87

>  <SCORE.INTER.norm>
-0.594011

>  <SCORE.INTRA>
1.55337

>  <SCORE.INTRA.DIHEDRAL>
15.7751

>  <SCORE.INTRA.DIHEDRAL.0>
8.37942

>  <SCORE.INTRA.POLAR>
0

>  <SCORE.INTRA.POLAR.0>
0

>  <SCORE.INTRA.REPUL>
0

>  <SCORE.INTRA.REPUL.0>
0

>  <SCORE.INTRA.VDW>
-1.60165

>  <SCORE.INTRA.VDW.0>
-0.0658046

>  <SCORE.INTRA.norm>
0.0470719

>  <SCORE.RESTR>
0.785688

>  <SCORE.RESTR.CAVITY>
0.785688

>  <SCORE.RESTR.norm>
0.0238087

>  <SCORE.SYSTEM>
-4.61959

>  <SCORE.SYSTEM.CONST>
0

>  <SCORE.SYSTEM.DIHEDRAL>
6.10062

>  <SCORE.SYSTEM.POLAR>
-1.29805

>  <SCORE.SYSTEM.VDW>
-3.25655

>  <SCORE.SYSTEM.norm>
-0.139988

>  <SCORE.heavy>
33

>  <SCORE.norm>
-0.663117

$$$$
FXV.pdb
  rDOCK(R)          3D
libRbt.so/2013.1/901 2013/11/27
 38 40  0  0  0  0  0  0  0  0999 V2000
   -4.1184   26.6471   18.3488 C   0  0  0  0  0  0
   -2.8086   26.4895   17.7859 C   0  0  0  0  0  0
   -2.1086   27.6773   17.3625 C   0  0  0  0  0  0
   -2.7211   28.9656   17.5061 C   0  0  0  0  0  0
   -3.9764   29.1034   18.0454 N   0  0  0  0  0  0
   -4.6601   27.9626   18.4584 C   0  0  0  0  0  0
   -1.8677   23.0007   16.3541 C   0  0  0  0  0  0
   -0.9606   22.4955   17.3822 C   0  0  0  0  0  0
   -0.6990   23.3327   18.5260 C   0  0  0  0  0  0
   -1.3014   24.6195   18.6602 C   0  0  0  0  0  0
   -2.1905   25.1302   17.6569 C   0  0  0  0  0  0
   -2.4576   24.2991   16.5144 C   0  0  0  0  0  0
   -0.2915   21.2013   17.3095 C   0  0  0  0  0  0
   -0.7340   20.3953   16.3248 N   0  0  0  0  0  0
   -0.1746   19.0943   16.0581 C   0  0  0  0  0  0
   -0.7004   18.6340   14.6811 C   0  0  0  0  0  0
   -0.5512   18.1391   17.2517 C   0  0  0  0  0  0
   -1.9282   18.5359   17.8157 C   0  0  0  0  0  0
   -2.7759   18.9354   16.8294 O   0  0  0  0  0  0
    0.5479   18.0905   18.4072 C   0  0  0  0  0  0
    2.4089   18.1100   16.5405 C   0  0  0  0  0  0
    3.8169   18.1392   16.1484 C   0  0  0  0  0  0
    4.8269   18.1812   17.1925 C   0  0  0  0  0  0
    4.4493   18.1963   18.5732 C   0  0  0  0  0  0
    3.0589   18.1665   18.9480 C   0  0  0  0  0  0
    2.0150   18.1253   17.9505 C   0  0  0  0  0  0
    4.2161   18.1246   14.7390 C   0  0  0  0  0  0
    5.4928   18.2626   14.3697 N   0  0  0  0  0  0
    3.2741   17.9626   13.7928 N   0  0  0  0  0  0
   -2.2011   18.5061   18.9654 O   0  0  0  0  0  0
    0.6299   20.8740   18.0810 O   0  0  0  0  0  0
   -3.9164   19.7580   17.0882 C   0  0  0  0  0  0
   -4.5605   30.3269   18.1820 O   0  0  0  0  0  0
   -1.4760   20.7105   15.7597 H   0  0  0  0  0  0
    6.1924   18.3819   15.0521 H   0  0  0  0  0  0
    2.3296   17.8598   14.0509 H   0  0  0  0  0  0
    3.5291   17.9469   12.8419 H   0  0  0  0  0  0
   -4.0519   30.9854   17.6835 H   0  0  0  0  0  0
  1  2  1  0  0  0
  1  6  2  0  0  0
  2  3  1  0  0  0
  2 11  1  0  0  0
  3  4  2  0  0  0
  4  5  1  0  0  0
  5  6  1  0  0  0
  5 33  1  0  0  0
  7  8  2  0  0  0
  7 12  1  0  0  0
  8  9  1  0  0  0
  8 13  1  0  0  0
  9 10  2  0  0  0
 10 11  1  0  0  0
 11 12  2  0  0  0
 13 14  1  0  0  0
 13 31  2  0  0  0
 14 15  1  0  0  0
 14 34  1  0  0  0
 15 16  1  0  0  0
 15 17  1  0  0  0
 17 18  1  0  0  0
 17 20  1  0  0  0
 18 19  1  0  0  0
 18 30  2  0  0  0
 19 32  1  0  0  0
 20 26  1  0  0  0
 21 22  2  0  0  0
 21 26  1  0  0  0
 22 23  1  0  0  0
 22 27  1  0  0  0
 23 24  2  0  0  0
 24 25  1  0  0  0
 25 26  2  0  0  0
 27 28  2  0  0  0
 27 29  1  0  0  0
 28 35  1  0  0  0
 29 36  1  0  0  0
 29 37  1  0  0  0
 33 38  1  0  0  0
M  END
>  <CHROM.0>
75.17307880,-141.93433562,23.06740207,-82.52667727,-60.66992230,63.29150886
102.62915507

>  <CHROM.1>
-95.16981426,12.05743770,-10.34362107,-166.81592967,32.65524338,36.78730158
-38.21523505,-158.51252806,-4.13524176,174.36490898,-0.44202031,21.67825070
17.18527268,2.14699121,0.21379948,0.01497458

>  <FORMUL>
      FXV    C25 H27 N4 O4 1+

>  <HET>
 FXV  A 401      33

>  <HETNAM>
     FXV METHYL-3-(4'-N-OXOPYRIDYLPHENOYL)-3-METHYL-2-(M-AMIDINO
   2 FXV BENZYL)-PROPIONATE

>  <HETSYN>
     FXV FXV673

>  <Name>
FXV.pdb

>  <RI>
2.75539e+07

>  <Rbt.Current_Directory>
/home/malgorzata/Desktop/rDOCK_IFD/Wyniki/8_factor_Xa2

>  <Rbt.Executable>
rbdock ($Id: //depot/dev/client3/rdock/2013.1/src/exe/rbdock.cxx#4 $)

>  <Rbt.Library>
libRbt.so (2013.1, Build901 2013/11/27)

>  <Rbt.Parameter_File>
/home/malgorzata/Desktop/rDock_2013.1_src/data/scripts/soft_docking.prm

>  <Rbt.Receptor>
cavity.prm

>  <SCORE>
-31.7217

>  <SCORE.INTER>
-31.5245

>  <SCORE.INTER.CONST>
1

>  <SCORE.INTER.POLAR>
-0.567851

>  <SCORE.INTER.REPUL>
0

>  <SCORE.INTER.ROT>
9

>  <SCORE.INTER.VDW>
-43.9938

>  <SCORE.INTER.norm>
-0.955288

>  <SCORE.INTRA>
1.7031

>  <SCORE.INTRA.DIHEDRAL>
3.23496

>  <SCORE.INTRA.DIHEDRAL.0>
8.37942

>  <SCORE.INTRA.POLAR>
0

>  <SCORE.INTRA.POLAR.0>
0

>  <SCORE.INTRA.REPUL>
0

>  <SCORE.INTRA.REPUL.0>
0

>  <SCORE.INTRA.VDW>
1.05611

>  <SCORE.INTRA.VDW.0>
-0.0658046

>  <SCORE.INTRA.norm>
0.051609

>  <SCORE.RESTR>
0.931742

>  <SCORE.RESTR.CAVITY>
0.931742

>  <SCORE.RESTR.norm>
0.0282346

>  <SCORE.SYSTEM>
-2.83202

>  <SCORE.SYSTEM.CONST>
0

>  <SCORE.SYSTEM.DIHEDRAL>
9.07961

>  <SCORE.SYSTEM.POLAR>
-1.29805

>  <SCORE.SYSTEM.REPUL>
0.0302106

>  <SCORE.SYSTEM.VDW>
-3.10952

>  <SCORE.SYSTEM.norm>
-0.0858187

>  <SCORE.heavy>
33

>  <SCORE.norm>
-0.961264

$$$$
FXV.pdb
  rDOCK(R)          3D
libRbt.so/2013.1/901 2013/11/27
 38 40  0  0  0  0  0  0  0  0999 V2000
   -3.6894   23.2514   17.2819 C   0  0  0  0  0  0
   -2.4736   23.0277   18.0092 C   0  0  0  0  0  0
   -2.0683   24.0247   18.9693 C   0  0  0  0  0  0
   -2.8682   25.1969   19.1737 C   0  0  0  0  0  0
   -4.0297   25.4003   18.4701 N   0  0  0  0  0  0
   -4.4303   24.4428   17.5416 C   0  0  0  0  0  0
    0.2433   20.2815   18.4383 C   0  0  0  0  0  0
   -0.1017   19.3554   17.3621 C   0  0  0  0  0  0
   -1.2257   19.6823   16.5210 C   0  0  0  0  0  0
   -1.9874   20.8718   16.7252 C   0  0  0  0  0  0
   -1.6630   21.7879   17.7803 C   0  0  0  0  0  0
   -0.5414   21.4691   18.6216 C   0  0  0  0  0  0
    0.6144   18.1117   17.1007 C   0  0  0  0  0  0
    1.2022   18.0463   15.8902 N   0  0  0  0  0  0
    1.9926   16.9222   15.4561 C   0  0  0  0  0  0
    3.3466   16.9911   16.1953 C   0  0  0  0  0  0
    2.1042   16.9720   13.8864 C   0  0  0  0  0  0
    3.0530   18.1121   13.4722 C   0  0  0  0  0  0
    4.1911   17.6326   12.9014 O   0  0  0  0  0  0
    0.6969   17.1015   13.1460 C   0  0  0  0  0  0
   -1.6847   16.0470   13.5512 C   0  0  0  0  0  0
   -2.5538   14.8781   13.6757 C   0  0  0  0  0  0
   -1.9656   13.5575   13.5265 C   0  0  0  0  0  0
   -0.5671   13.4071   13.2608 C   0  0  0  0  0  0
    0.2799   14.5659   13.1408 C   0  0  0  0  0  0
   -0.2535   15.9010   13.2795 C   0  0  0  0  0  0
   -3.9864   15.0188   13.9470 C   0  0  0  0  0  0
   -4.5850   16.2134   13.9559 N   0  0  0  0  0  0
   -4.7191   13.9169   14.1879 N   0  0  0  0  0  0
    2.8187   19.2577   13.6448 O   0  0  0  0  0  0
    0.6954   17.1915   17.9363 O   0  0  0  0  0  0
    4.9559   18.3945   11.9639 C   0  0  0  0  0  0
   -4.7910   26.5140   18.6624 O   0  0  0  0  0  0
    1.0860   18.8035   15.2718 H   0  0  0  0  0  0
   -4.0606   17.0280   13.7812 H   0  0  0  0  0  0
   -4.2908   13.0305   14.1844 H   0  0  0  0  0  0
   -5.6838   13.9968   14.3677 H   0  0  0  0  0  0
   -4.2887   27.2992   18.3940 H   0  0  0  0  0  0
  1  2  1  0  0  0
  1  6  2  0  0  0
  2  3  1  0  0  0
  2 11  1  0  0  0
  3  4  2  0  0  0
  4  5  1  0  0  0
  5  6  1  0  0  0
  5 33  1  0  0  0
  7  8  2  0  0  0
  7 12  1  0  0  0
  8  9  1  0  0  0
  8 13  1  0  0  0
  9 10  2  0  0  0
 10 11  1  0  0  0
 11 12  2  0  0  0
 13 14  1  0  0  0
 13 31  2  0  0  0
 14 15  1  0  0  0
 14 34  1  0  0  0
 15 16  1  0  0  0
 15 17  1  0  0  0
 17 18  1  0  0  0
 17 20  1  0  0  0
 18 19  1  0  0  0
 18 30  2  0  0  0
 19 32  1  0  0  0
 20 26  1  0  0  0
 21 22  2  0  0  0
 21 26  1  0  0  0
 22 23  1  0  0  0
 22 27  1  0  0  0
 23 24  2  0  0  0
 24 25  1  0  0  0
 25 26  2  0  0  0
 27 28  2  0  0  0
 27 29  1  0  0  0
 28 35  1  0  0  0
 29 36  1  0  0  0
 29 37  1  0  0  0
 33 38  1  0  0  0
M  END
>  <CHROM.0>
117.81759641,173.57653597,57.85972223,102.99134150,-60.66992230,32.70893104
74.10540844

>  <CHROM.1>
7.46572917,64.21566966,-118.27069465,-74.34996523,72.83540767,113.06502532
-66.07672459,153.59931004,136.27188649,6.98224357,-0.69258717,18.92012063
15.67076376,1.93394189,0.13434197,0.46064625

>  <FORMUL>
      FXV    C25 H27 N4 O4 1+

>  <HET>
 FXV  A 401      33

>  <HETNAM>
     FXV METHYL-3-(4'-N-OXOPYRIDYLPHENOYL)-3-METHYL-2-(M-AMIDINO
   2 FXV BENZYL)-PROPIONATE

>  <HETSYN>
     FXV FXV673

>  <Name>
FXV.pdb

>  <RI>
2.75539e+07

>  <Rbt.Current_Directory>
/home/malgorzata/Desktop/rDOCK_IFD/Wyniki/8_factor_Xa2

>  <Rbt.Executable>
rbdock ($Id: //depot/dev/client3/rdock/2013.1/src/exe/rbdock.cxx#4 $)

>  <Rbt.Library>
libRbt.so (2013.1, Build901 2013/11/27)

>  <Rbt.Parameter_File>
/home/malgorzata/Desktop/rDock_2013.1_src/data/scripts/soft_docking.prm

>  <Rbt.Receptor>
cavity.prm

>  <SCORE>
-31.661

>  <SCORE.INTER>
-30.7132

>  <SCORE.INTER.CONST>
1

>  <SCORE.INTER.POLAR>
-1.50088

>  <SCORE.INTER.REPUL>
0

>  <SCORE.INTER.ROT>
9

>  <SCORE.INTER.VDW>
-40.0102

>  <SCORE.INTER.norm>
-0.930704

>  <SCORE.INTRA>
2.2555

>  <SCORE.INTRA.DIHEDRAL>
16.8581

>  <SCORE.INTRA.DIHEDRAL.0>
8.37942

>  <SCORE.INTRA.POLAR>
0

>  <SCORE.INTRA.POLAR.0>
0

>  <SCORE.INTRA.REPUL>
0

>  <SCORE.INTRA.REPUL.0>
0

>  <SCORE.INTRA.VDW>
-1.11613

>  <SCORE.INTRA.VDW.0>
-0.0658046

>  <SCORE.INTRA.norm>
0.0683484

>  <SCORE.RESTR>
0

>  <SCORE.RESTR.CAVITY>
0

>  <SCORE.RESTR.norm>
0

>  <SCORE.SYSTEM>
-3.20323

>  <SCORE.SYSTEM.CONST>
0

>  <SCORE.SYSTEM.DIHEDRAL>
8.55753

>  <SCORE.SYSTEM.POLAR>
-1.29805

>  <SCORE.SYSTEM.VDW>
-3.06864

>  <SCORE.SYSTEM.norm>
-0.0970676

>  <SCORE.heavy>
33

>  <SCORE.norm>
-0.959423

$$$$
FXV.pdb
  rDOCK(R)          3D
libRbt.so/2013.1/901 2013/11/27
 38 40  0  0  0  0  0  0  0  0999 V2000
   -2.9975   25.3283   18.1678 C   0  0  0  0  0  0
   -3.1464   24.0890   18.8743 C   0  0  0  0  0  0
   -4.3199   23.9167   19.6948 C   0  0  0  0  0  0
   -5.2941   24.9642   19.7898 C   0  0  0  0  0  0
   -5.1396   26.1469   19.1094 N   0  0  0  0  0  0
   -4.0104   26.3226   18.3135 C   0  0  0  0  0  0
   -0.3996   21.7874   17.3691 C   0  0  0  0  0  0
   -0.0794   20.9284   18.5069 C   0  0  0  0  0  0
   -0.7978   21.1392   19.7387 C   0  0  0  0  0  0
   -1.7935   22.1550   19.8554 C   0  0  0  0  0  0
   -2.1153   23.0084   18.7481 C   0  0  0  0  0  0
   -1.4040   22.8020   17.5157 C   0  0  0  0  0  0
    0.9367   19.8822   18.4735 C   0  0  0  0  0  0
    1.9457   20.1073   17.6096 N   0  0  0  0  0  0
    3.0687   19.2171   17.4583 C   0  0  0  0  0  0
    4.3339   19.9831   17.9020 C   0  0  0  0  0  0
    3.1027   18.7116   15.9675 C   0  0  0  0  0  0
    2.8709   17.1896   15.9331 C   0  0  0  0  0  0
    2.1309   16.8210   14.8526 O   0  0  0  0  0  0
    4.4368   19.1050   15.1860 C   0  0  0  0  0  0
    5.3789   19.9548   12.8755 C   0  0  0  0  0  0
    5.1608   20.4746   11.5266 C   0  0  0  0  0  0
    3.7950   20.6856   11.0770 C   0  0  0  0  0  0
    2.6894   20.3878   11.9363 C   0  0  0  0  0  0
    2.9161   19.8767   13.2636 C   0  0  0  0  0  0
    4.2532   19.6479   13.7598 C   0  0  0  0  0  0
    6.2837   20.7828   10.6377 C   0  0  0  0  0  0
    6.0963   21.0896    9.3508 N   0  0  0  0  0  0
    7.5348   20.7617   11.1309 N   0  0  0  0  0  0
    3.2783   16.4438   16.7548 O   0  0  0  0  0  0
    0.8885   18.8716   19.2000 O   0  0  0  0  0  0
    1.8213   15.4545   14.5681 C   0  0  0  0  0  0
   -6.0640   27.1440   19.1990 O   0  0  0  0  0  0
    1.9142   20.9197   17.0544 H   0  0  0  0  0  0
    5.1858   21.1088    8.9769 H   0  0  0  0  0  0
    7.6871   20.5372   12.0773 H   0  0  0  0  0  0
    8.2983   20.9708   10.5455 H   0  0  0  0  0  0
   -6.3754   27.2148   20.1149 H   0  0  0  0  0  0
  1  2  1  0  0  0
  1  6  2  0  0  0
  2  3  1  0  0  0
  2 11  1  0  0  0
  3  4  2  0  0  0
  4  5  1  0  0  0
  5  6  1  0  0  0
  5 33  1  0  0  0
  7  8  2  0  0  0
  7 12  1  0  0  0
  8  9  1  0  0  0
  8 13  1  0  0  0
  9 10  2  0  0  0
 10 11  1  0  0  0
 11 12  2  0  0  0
 13 14  1  0  0  0
 13 31  2  0  0  0
 14 15  1  0  0  0
 14 34  1  0  0  0
 15 16  1  0  0  0
 15 17  1  0  0  0
 17 18  1  0  0  0
 17 20  1  0  0  0
 18 19  1  0  0  0
 18 30  2  0  0  0
 19 32  1  0  0  0
 20 26  1  0  0  0
 21 22  2  0  0  0
 21 26  1  0  0  0
 22 23  1  0  0  0
 22 27  1  0  0  0
 23 24  2  0  0  0
 24 25  1  0  0  0
 25 26  2  0  0  0
 27 28  2  0  0  0
 27 29  1  0  0  0
 28 35  1  0  0  0
 29 36  1  0  0  0
 29 37  1  0  0  0
 33 38  1  0  0  0
M  END
>  <CHROM.0>
101.45110901,172.63352488,-10.85332055,-68.66724914,-60.66992230,164.31440505
93.72758073

>  <CHROM.1>
145.55492132,40.16730319,28.28886751,-115.77361284,-115.86508478,143.46203910
-135.39665871,177.60303207,-175.11641730,171.08620422,1.08721711,21.03155888
16.19411636,3.13201680,-0.76433325,2.42949938

>  <FORMUL>
      FXV    C25 H27 N4 O4 1+

>  <HET>
 FXV  A 401      33

>  <HETNAM>
     FXV METHYL-3-(4'-N-OXOPYRIDYLPHENOYL)-3-METHYL-2-(M-AMIDINO
   2 FXV BENZYL)-PROPIONATE

>  <HETSYN>
     FXV FXV673

>  <Name>
FXV.pdb

>  <RI>
2.75539e+07

>  <Rbt.Current_Directory>
/home/malgorzata/Desktop/rDOCK_IFD/Wyniki/8_factor_Xa2

>  <Rbt.Executable>
rbdock ($Id: //depot/dev/client3/rdock/2013.1/src/exe/rbdock.cxx#4 $)

>  <Rbt.Library>
libRbt.so (2013.1, Build901 2013/11/27)

>  <Rbt.Parameter_File>
/home/malgorzata/Desktop/rDock_2013.1_src/data/scripts/soft_docking.prm

>  <Rbt.Receptor>
cavity.prm

>  <SCORE>
-29.2687

>  <SCORE.INTER>
-27.46

>  <SCORE.INTER.CONST>
1

>  <SCORE.INTER.POLAR>
-1.55727

>  <SCORE.INTER.REPUL>
0.194823

>  <SCORE.INTER.ROT>
9

>  <SCORE.INTER.VDW>
-37.5394

>  <SCORE.INTER.norm>
-0.832122

>  <SCORE.INTRA>
3.87461

>  <SCORE.INTRA.DIHEDRAL>
11.1827

>  <SCORE.INTRA.DIHEDRAL.0>
8.37942

>  <SCORE.INTRA.POLAR>
0

>  <SCORE.INTRA.POLAR.0>
0

>  <SCORE.INTRA.REPUL>
0

>  <SCORE.INTRA.REPUL.0>
0

>  <SCORE.INTRA.VDW>
1.63806

>  <SCORE.INTRA.VDW.0>
-0.0658046

>  <SCORE.INTRA.norm>
0.117412

>  <SCORE.RESTR>
0.349446

>  <SCORE.RESTR.CAVITY>
0.349446

>  <SCORE.RESTR.norm>
0.0105893

>  <SCORE.SYSTEM>
-6.03276

>  <SCORE.SYSTEM.CONST>
0

>  <SCORE.SYSTEM.DIHEDRAL>
1.99646

>  <SCORE.SYSTEM.POLAR>
-1.29805

>  <SCORE.SYSTEM.REPUL>
0.0984064

>  <SCORE.SYSTEM.VDW>
-3.10967

>  <SCORE.SYSTEM.norm>
-0.182811

>  <SCORE.heavy>
33

>  <SCORE.norm>
-0.886931

$$$$
FXV.pdb
  rDOCK(R)          3D
libRbt.so/2013.1/901 2013/11/27
 38 40  0  0  0  0  0  0  0  0999 V2000
   -4.7576   26.6586   19.7040 C   0  0  0  0  0  0
   -3.7497   26.3073   18.7459 C   0  0  0  0  0  0
   -3.4975   27.2268   17.6638 C   0  0  0  0  0  0
   -4.2432   28.4473   17.5653 C   0  0  0  0  0  0
   -5.2068   28.7718   18.4883 N   0  0  0  0  0  0
   -5.4570   27.8911   19.5376 C   0  0  0  0  0  0
   -0.7946   23.8300   19.2335 C   0  0  0  0  0  0
   -1.4796   22.5405   19.1791 C   0  0  0  0  0  0
   -2.9060   22.5388   18.9719 C   0  0  0  0  0  0
   -3.6383   23.7549   18.8247 C   0  0  0  0  0  0
   -2.9799   25.0282   18.8803 C   0  0  0  0  0  0
   -1.5566   25.0369   19.0843 C   0  0  0  0  0  0
   -0.8063   21.2563   19.3394 C   0  0  0  0  0  0
    0.2788   21.0902   18.5583 N   0  0  0  0  0  0
    1.1068   19.9115   18.5975 C   0  0  0  0  0  0
    2.4087   20.2807   19.3413 C   0  0  0  0  0  0
    1.3206   19.4071   17.1214 C   0  0  0  0  0  0
   -0.0045   18.8495   16.5694 C   0  0  0  0  0  0
   -0.1066   17.5084   16.7750 O   0  0  0  0  0  0
    2.4972   18.3400   16.9711 C   0  0  0  0  0  0
    2.5529   18.5214   14.3420 C   0  0  0  0  0  0
    3.2919   18.4984   13.0808 C   0  0  0  0  0  0
    4.7274   18.2760   13.1220 C   0  0  0  0  0  0
    5.4013   18.0867   14.3708 C   0  0  0  0  0  0
    4.6630   18.1105   15.6073 C   0  0  0  0  0  0
    3.2352   18.3286   15.6230 C   0  0  0  0  0  0
    2.6140   18.6913   11.7966 C   0  0  0  0  0  0
    1.3463   18.3134   11.6084 N   0  0  0  0  0  0
    3.2831   19.2686   10.7827 N   0  0  0  0  0  0
   -0.8195   19.5099   16.0247 O   0  0  0  0  0  0
   -1.1894   20.3901   20.1483 O   0  0  0  0  0  0
    0.0336   16.5596   15.7147 C   0  0  0  0  0  0
   -5.9171   29.9309   18.3960 O   0  0  0  0  0  0
    0.5178   21.8095   17.9299 H   0  0  0  0  0  0
    0.8449   17.8897   12.3421 H   0  0  0  0  0  0
    4.2177   19.5518   10.9076 H   0  0  0  0  0  0
    2.8383   19.4079    9.9154 H   0  0  0  0  0  0
   -6.4892   30.0223   19.1740 H   0  0  0  0  0  0
  1  2  1  0  0  0
  1  6  2  0  0  0
  2  3  1  0  0  0
  2 11  1  0  0  0
  3  4  2  0  0  0
  4  5  1  0  0  0
  5  6  1  0  0  0
  5 33  1  0  0  0
  7  8  2  0  0  0
  7 12  1  0  0  0
  8  9  1  0  0  0
  8 13  1  0  0  0
  9 10  2  0  0  0
 10 11  1  0  0  0
 11 12  2  0  0  0
 13 14  1  0  0  0
 13 31  2  0  0  0
 14 15  1  0  0  0
 14 34  1  0  0  0
 15 16  1  0  0  0
 15 17  1  0  0  0
 17 18  1  0  0  0
 17 20  1  0  0  0
 18 19  1  0  0  0
 18 30  2  0  0  0
 19 32  1  0  0  0
 20 26  1  0  0  0
 21 22  2  0  0  0
 21 26  1  0  0  0
 22 23  1  0  0  0
 22 27  1  0  0  0
 23 24  2  0  0  0
 24 25  1  0  0  0
 25 26  2  0  0  0
 27 28  2  0  0  0
 27 29  1  0  0  0
 28 35  1  0  0  0
 29 36  1  0  0  0
 29 37  1  0  0  0
 33 38  1  0  0  0
M  END
>  <CHROM.0>
-85.55203288,167.93754079,-55.69099794,153.89525647,-60.66992230,163.31695628
-117.54551960

>  <CHROM.1>
62.15880555,-174.95195052,-50.65382912,-104.88592853,-69.48726663,-92.66363573
-150.12348636,-106.66131976,-38.58503200,-30.37213453,-0.34221285,21.71874611
16.94940028,-3.13454367,0.94861564,-1.10708152

>  <FORMUL>
      FXV    C25 H27 N4 O4 1+

>  <HET>
 FXV  A 401      33

>  <HETNAM>
     FXV METHYL-3-(4'-N-OXOPYRIDYLPHENOYL)-3-METHYL-2-(M-AMIDINO
   2 FXV BENZYL)-PROPIONATE

>  <HETSYN>
     FXV FXV673

>  <Name>
FXV.pdb

>  <RI>
2.75539e+07

>  <Rbt.Current_Directory>
/home/malgorzata/Desktop/rDOCK_IFD/Wyniki/8_factor_Xa2

>  <Rbt.Executable>
rbdock ($Id: //depot/dev/client3/rdock/2013.1/src/exe/rbdock.cxx#4 $)

>  <Rbt.Library>
libRbt.so (2013.1, Build901 2013/11/27)

>  <Rbt.Parameter_File>
/home/malgorzata/Desktop/rDock_2013.1_src/data/scripts/soft_docking.prm

>  <Rbt.Receptor>
cavity.prm

>  <SCORE>
-32.7799

>  <SCORE.INTER>
-32.6344

>  <SCORE.INTER.CONST>
1

>  <SCORE.INTER.POLAR>
-0.490928

>  <SCORE.INTER.REPUL>
0.249133

>  <SCORE.INTER.ROT>
9

>  <SCORE.INTER.VDW>
-46.6109

>  <SCORE.INTER.norm>
-0.988921

>  <SCORE.INTRA>
4.33551

>  <SCORE.INTRA.DIHEDRAL>
31.6485

>  <SCORE.INTRA.DIHEDRAL.0>
8.37942

>  <SCORE.INTRA.POLAR>
0

>  <SCORE.INTRA.POLAR.0>
0

>  <SCORE.INTRA.REPUL>
0

>  <SCORE.INTRA.REPUL.0>
0

>  <SCORE.INTRA.VDW>
-1.9942

>  <SCORE.INTRA.VDW.0>
-0.0658046

>  <SCORE.INTRA.norm>
0.131379

>  <SCORE.RESTR>
0.377699

>  <SCORE.RESTR.CAVITY>
0.377699

>  <SCORE.RESTR.norm>
0.0114454

>  <SCORE.SYSTEM>
-4.85869

>  <SCORE.SYSTEM.CONST>
0

>  <SCORE.SYSTEM.DIHEDRAL>
4.69214

>  <SCORE.SYSTEM.POLAR>
-1.29805

>  <SCORE.SYSTEM.VDW>
-2.79141

>  <SCORE.SYSTEM.norm>
-0.147233

>  <SCORE.heavy>
33

>  <SCORE.norm>
-0.99333

$$$$
FXV.pdb
  rDOCK(R)          3D
libRbt.so/2013.1/901 2013/11/27
 38 40  0  0  0  0  0  0  0  0999 V2000
   -1.9197   24.3248   17.7435 C   0  0  0  0  0  0
   -2.9861   23.4048   17.4720 C   0  0  0  0  0  0
   -4.3072   23.7461   17.9391 C   0  0  0  0  0  0
   -4.5264   24.9701   18.6527 C   0  0  0  0  0  0
   -3.4969   25.8422   18.9076 N   0  0  0  0  0  0
   -2.2177   25.5224   18.4597 C   0  0  0  0  0  0
   -1.2801   20.1275   16.2650 C   0  0  0  0  0  0
   -2.2368   19.6467   15.2707 C   0  0  0  0  0  0
   -3.4173   20.4374   15.0280 C   0  0  0  0  0  0
   -3.6559   21.6549   15.7335 C   0  0  0  0  0  0
   -2.7278   22.1369   16.7155 C   0  0  0  0  0  0
   -1.5469   21.3542   16.9607 C   0  0  0  0  0  0
   -2.0747   18.4050   14.5224 C   0  0  0  0  0  0
   -1.2249   17.5206   15.0800 N   0  0  0  0  0  0
   -0.9609   16.2190   14.5208 C   0  0  0  0  0  0
   -0.7731   15.2358   15.6965 C   0  0  0  0  0  0
    0.2835   16.3346   13.5631 C   0  0  0  0  0  0
    0.4878   15.0018   12.8191 C   0  0  0  0  0  0
   -0.5369   14.7461   11.9615 O   0  0  0  0  0  0
    1.6228   16.7886   14.3019 C   0  0  0  0  0  0
    2.3827   18.1766   12.1939 C   0  0  0  0  0  0
    3.1540   19.2669   11.5994 C   0  0  0  0  0  0
    3.9605   20.1026   12.4729 C   0  0  0  0  0  0
    3.9954   19.8635   13.8839 C   0  0  0  0  0  0
    3.2320   18.7858   14.4587 C   0  0  0  0  0  0
    2.4134   17.9260   13.6360 C   0  0  0  0  0  0
    3.1263   19.5221   10.1571 C   0  0  0  0  0  0
    3.2197   20.7594    9.6614 N   0  0  0  0  0  0
    3.0093   18.4839    9.3101 N   0  0  0  0  0  0
    1.4162   14.2901   12.9884 O   0  0  0  0  0  0
   -2.6881   18.1702   13.4641 O   0  0  0  0  0  0
   -1.2411   13.5017   11.9612 C   0  0  0  0  0  0
   -3.7031   27.0057   19.5863 O   0  0  0  0  0  0
   -0.7616   17.7762   15.9103 H   0  0  0  0  0  0
    3.3058   21.5283   10.2701 H   0  0  0  0  0  0
    2.9396   17.5670    9.6619 H   0  0  0  0  0  0
    2.9934   18.6408    8.3382 H   0  0  0  0  0  0
   -4.6493   27.2196   19.5813 H   0  0  0  0  0  0
  1  2  1  0  0  0
  1  6  2  0  0  0
  2  3  1  0  0  0
  2 11  1  0  0  0
  3  4  2  0  0  0
  4  5  1  0  0  0
  5  6  1  0  0  0
  5 33  1  0  0  0
  7  8  2  0  0  0
  7 12  1  0  0  0
  8  9  1  0  0  0
  8 13  1  0  0  0
  9 10  2  0  0  0
 10 11  1  0  0  0
 11 12  2  0  0  0
 13 14  1  0  0  0
 13 31  2  0  0  0
 14 15  1  0  0  0
 14 34  1  0  0  0
 15 16  1  0  0  0
 15 17  1  0  0  0
 17 18  1  0  0  0
 17 20  1  0  0  0
 18 19  1  0  0  0
 18 30  2  0  0  0
 19 32  1  0  0  0
 20 26  1  0  0  0
 21 22  2  0  0  0
 21 26  1  0  0  0
 22 23  1  0  0  0
 22 27  1  0  0  0
 23 24  2  0  0  0
 24 25  1  0  0  0
 25 26  2  0  0  0
 27 28  2  0  0  0
 27 29  1  0  0  0
 28 35  1  0  0  0
 29 36  1  0  0  0
 29 37  1  0  0  0
 33 38  1  0  0  0
M  END
>  <CHROM.0>
-99.54475561,32.05021268,38.81769290,-7.09128332,-60.66992230,-148.53549390
89.51951097

>  <CHROM.1>
-139.78657782,-17.82313836,19.88083560,-143.89932819,-173.21102853,66.54376708
-131.72231959,-128.71122000,-28.10165211,146.38041736,-0.47664656,19.62243128
14.60824984,-2.14761284,-0.61813864,-2.84931578

>  <FORMUL>
      FXV    C25 H27 N4 O4 1+

>  <HET>
 FXV  A 401      33

>  <HETNAM>
     FXV METHYL-3-(4'-N-OXOPYRIDYLPHENOYL)-3-METHYL-2-(M-AMIDINO
   2 FXV BENZYL)-PROPIONATE

>  <HETSYN>
     FXV FXV673

>  <Name>
FXV.pdb

>  <RI>
2.75539e+07

>  <Rbt.Current_Directory>
/home/malgorzata/Desktop/rDOCK_IFD/Wyniki/8_factor_Xa2

>  <Rbt.Executable>
rbdock ($Id: //depot/dev/client3/rdock/2013.1/src/exe/rbdock.cxx#4 $)

>  <Rbt.Library>
libRbt.so (2013.1, Build901 2013/11/27)

>  <Rbt.Parameter_File>
/home/malgorzata/Desktop/rDock_2013.1_src/data/scripts/soft_docking.prm

>  <Rbt.Receptor>
cavity.prm

>  <SCORE>
-31.9758

>  <SCORE.INTER>
-33.139

>  <SCORE.INTER.CONST>
1

>  <SCORE.INTER.POLAR>
-1.06919

>  <SCORE.INTER.REPUL>
0

>  <SCORE.INTER.ROT>
9

>  <SCORE.INTER.VDW>
-43.9038

>  <SCORE.INTER.norm>
-1.00421

>  <SCORE.INTRA>
2.90336

>  <SCORE.INTRA.DIHEDRAL>
19.8573

>  <SCORE.INTRA.DIHEDRAL.0>
8.37942

>  <SCORE.INTRA.POLAR>
0

>  <SCORE.INTRA.POLAR.0>
0

>  <SCORE.INTRA.REPUL>
0

>  <SCORE.INTRA.REPUL.0>
0

>  <SCORE.INTRA.VDW>
-1.06809

>  <SCORE.INTRA.VDW.0>
-0.0658046

>  <SCORE.INTRA.norm>
0.0879807

>  <SCORE.RESTR>
0.474712

>  <SCORE.RESTR.CAVITY>
0.474712

>  <SCORE.RESTR.norm>
0.0143852

>  <SCORE.SYSTEM>
-2.21484

>  <SCORE.SYSTEM.CONST>
0

>  <SCORE.SYSTEM.DIHEDRAL>
10.822

>  <SCORE.SYSTEM.POLAR>
-1.29805

>  <SCORE.SYSTEM.REPUL>
0.00262096

>  <SCORE.SYSTEM.VDW>
-3.22557

>  <SCORE.SYSTEM.norm>
-0.0671163

>  <SCORE.heavy>
33

>  <SCORE.norm>
-0.968964

$$$$
FXV.pdb
  rDOCK(R)          3D
libRbt.so/2013.1/901 2013/11/27
 38 40  0  0  0  0  0  0  0  0999 V2000
    6.3829   19.7066   12.1057 C   0  0  0  0  0  0
    5.0382   19.9978   12.5108 C   0  0  0  0  0  0
    4.1827   20.6790   11.5706 C   0  0  0  0  0  0
    4.6804   21.0471   10.2774 C   0  0  0  0  0  0
    5.9705   20.7638    9.9018 N   0  0  0  0  0  0
    6.8042   20.1053   10.8021 C   0  0  0  0  0  0
    4.4902   19.9425   16.3585 C   0  0  0  0  0  0
    3.5544   18.8302   16.5065 C   0  0  0  0  0  0
    3.1430   18.1276   15.3170 C   0  0  0  0  0  0
    3.6277   18.4998   14.0273 C   0  0  0  0  0  0
    4.5434   19.5924   13.8663 C   0  0  0  0  0  0
    4.9597   20.2960   15.0491 C   0  0  0  0  0  0
    2.9995   18.4011   17.7855 C   0  0  0  0  0  0
    2.0081   17.4937   17.6910 N   0  0  0  0  0  0
    1.3585   16.9117   18.8382 C   0  0  0  0  0  0
    0.0223   16.3040   18.3590 C   0  0  0  0  0  0
    1.2092   18.0256   19.9408 C   0  0  0  0  0  0
    1.3173   17.3869   21.3379 C   0  0  0  0  0  0
    1.6463   18.3074   22.2842 O   0  0  0  0  0  0
   -0.1273   18.8867   19.8074 C   0  0  0  0  0  0
   -0.5799   21.4823   19.8839 C   0  0  0  0  0  0
   -0.4041   22.8212   19.3238 C   0  0  0  0  0  0
    0.3968   22.9699   18.1203 C   0  0  0  0  0  0
    1.0015   21.8301   17.5004 C   0  0  0  0  0  0
    0.8210   20.5154   18.0606 C   0  0  0  0  0  0
    0.0355   20.3119   19.2555 C   0  0  0  0  0  0
   -1.0173   23.9955   19.9490 C   0  0  0  0  0  0
   -1.5232   23.9489   21.1848 N   0  0  0  0  0  0
   -1.0674   25.1517   19.2637 N   0  0  0  0  0  0
    1.1468   16.2366   21.5498 O   0  0  0  0  0  0
    3.4213   18.8222   18.8792 O   0  0  0  0  0  0
    2.5315   18.0084   23.3665 C   0  0  0  0  0  0
    6.4457   21.1135    8.6735 O   0  0  0  0  0  0
    1.7130   17.2144   16.7942 H   0  0  0  0  0  0
   -1.4931   23.1091   21.6977 H   0  0  0  0  0  0
   -0.6983   25.2000   18.3522 H   0  0  0  0  0  0
   -1.4731   25.9498   19.6734 H   0  0  0  0  0  0
    7.4142   21.0602    8.6743 H   0  0  0  0  0  0
  1  2  1  0  0  0
  1  6  2  0  0  0
  2  3  1  0  0  0
  2 11  1  0  0  0
  3  4  2  0  0  0
  4  5  1  0  0  0
  5  6  1  0  0  0
  5 33  1  0  0  0
  7  8  2  0  0  0
  7 12  1  0  0  0
  8  9  1  0  0  0
  8 13  1  0  0  0
  9 10  2  0  0  0
 10 11  1  0  0  0
 11 12  2  0  0  0
 13 14  1  0  0  0
 13 31  2  0  0  0
 14 15  1  0  0  0
 14 34  1  0  0  0
 15 16  1  0  0  0
 15 17  1  0  0  0
 17 18  1  0  0  0
 17 20  1  0  0  0
 18 19  1  0  0  0
 18 30  2  0  0  0
 19 32  1  0  0  0
 20 26  1  0  0  0
 21 22  2  0  0  0
 21 26  1  0  0  0
 22 23  1  0  0  0
 22 27  1  0  0  0
 23 24  2  0  0  0
 24 25  1  0  0  0
 25 26  2  0  0  0
 27 28  2  0  0  0
 27 29  1  0  0  0
 28 35  1  0  0  0
 29 36  1  0  0  0
 29 37  1  0  0  0
 33 38  1  0  0  0
M  END
>  <CHROM.0>
95.02136863,17.88405490,-87.74109307,-179.21214770,-60.66992230,-0.76572756
7.88737464

>  <CHROM.1>
-106.68162275,164.52244942,170.54839671,161.92055700,-147.30261376,159.30054994
-105.29899692,-142.13886461,-132.38051143,13.98304576,2.38831929,19.87539075
16.99583484,-0.61556050,-0.94315776,2.46452542

>  <FORMUL>
      FXV    C25 H27 N4 O4 1+

>  <HET>
 FXV  A 401      33

>  <HETNAM>
     FXV METHYL-3-(4'-N-OXOPYRIDYLPHENOYL)-3-METHYL-2-(M-AMIDINO
   2 FXV BENZYL)-PROPIONATE

>  <HETSYN>
     FXV FXV673

>  <Name>
FXV.pdb

>  <RI>
2.75539e+07

>  <Rbt.Current_Directory>
/home/malgorzata/Desktop/rDOCK_IFD/Wyniki/8_factor_Xa2

>  <Rbt.Executable>
rbdock ($Id: //depot/dev/client3/rdock/2013.1/src/exe/rbdock.cxx#4 $)

>  <Rbt.Library>
libRbt.so (2013.1, Build901 2013/11/27)

>  <Rbt.Parameter_File>
/home/malgorzata/Desktop/rDock_2013.1_src/data/scripts/soft_docking.prm

>  <Rbt.Receptor>
cavity.prm

>  <SCORE>
-30.7776

>  <SCORE.INTER>
-30.1719

>  <SCORE.INTER.CONST>
1

>  <SCORE.INTER.POLAR>
-2.13097

>  <SCORE.INTER.REPUL>
0.747716

>  <SCORE.INTER.ROT>
9

>  <SCORE.INTER.VDW>
-41.0652

>  <SCORE.INTER.norm>
-0.914301

>  <SCORE.INTRA>
5.19049

>  <SCORE.INTRA.DIHEDRAL>
12.876

>  <SCORE.INTRA.DIHEDRAL.0>
8.37942

>  <SCORE.INTRA.POLAR>
0

>  <SCORE.INTRA.POLAR.0>
0

>  <SCORE.INTRA.REPUL>
0

>  <SCORE.INTRA.REPUL.0>
0

>  <SCORE.INTRA.VDW>
2.61528

>  <SCORE.INTRA.VDW.0>
-0.0658046

>  <SCORE.INTRA.norm>
0.157288

>  <SCORE.RESTR>
0.585992

>  <SCORE.RESTR.CAVITY>
0.585992

>  <SCORE.RESTR.norm>
0.0177573

>  <SCORE.SYSTEM>
-6.3821

>  <SCORE.SYSTEM.CONST>
0

>  <SCORE.SYSTEM.DIHEDRAL>
1.65096

>  <SCORE.SYSTEM.POLAR>
-1.29805

>  <SCORE.SYSTEM.VDW>
-2.79422

>  <SCORE.SYSTEM.norm>
-0.193397

>  <SCORE.heavy>
33

>  <SCORE.norm>
-0.932653

$$$$
