FXV.pdb
  rDOCK(R)          3D
libRbt.so/2013.1/901 2013/11/27
 38 40  0  0  0  0  0  0  0  0999 V2000
    5.2135   19.8800   11.4057 C   0  0  0  0  0  0
    5.8293   20.6220   12.4675 C   0  0  0  0  0  0
    6.7372   21.6842   12.1103 C   0  0  0  0  0  0
    7.0044   21.9719   10.7314 C   0  0  0  0  0  0
    6.4095   21.2534    9.7238 N   0  0  0  0  0  0
    5.5303   20.2265   10.0583 C   0  0  0  0  0  0
    6.1334   20.4413   16.3383 C   0  0  0  0  0  0
    4.9147   19.7187   16.6957 C   0  0  0  0  0  0
    4.0343   19.3064   15.6316 C   0  0  0  0  0  0
    4.3331   19.5915   14.2655 C   0  0  0  0  0  0
    5.5235   20.3038   13.8999 C   0  0  0  0  0  0
    6.4073   20.7159   14.9565 C   0  0  0  0  0  0
    4.5295   19.4058   18.0675 C   0  0  0  0  0  0
    4.8204   18.1502   18.4596 N   0  0  0  0  0  0
    4.5607   17.6580   19.7889 C   0  0  0  0  0  0
    5.8173   16.8918   20.2563 C   0  0  0  0  0  0
    3.2469   16.7913   19.7482 C   0  0  0  0  0  0
    3.2124   15.8487   20.9655 C   0  0  0  0  0  0
    3.9948   14.7527   20.7713 O   0  0  0  0  0  0
    3.0558   15.9777   18.3891 C   0  0  0  0  0  0
    2.1529   16.7105   16.0236 C   0  0  0  0  0  0
    1.0671   17.1861   15.1680 C   0  0  0  0  0  0
   -0.2354   17.4229   15.7675 C   0  0  0  0  0  0
   -0.4490   17.1923   17.1640 C   0  0  0  0  0  0
    0.6283   16.7244   17.9977 C   0  0  0  0  0  0
    1.9420   16.4724   17.4526 C   0  0  0  0  0  0
    1.2729   17.4254   13.7375 C   0  0  0  0  0  0
    0.2938   17.8894   12.9555 N   0  0  0  0  0  0
    2.4799   17.1770   13.1985 N   0  0  0  0  0  0
    2.5725   16.0540   21.9379 O   0  0  0  0  0  0
    3.9939   20.2377   18.8242 O   0  0  0  0  0  0
    3.4842   13.4211   20.8732 C   0  0  0  0  0  0
    6.6626   21.5249    8.4127 O   0  0  0  0  0  0
    5.2307   17.5388   17.8060 H   0  0  0  0  0  0
   -0.5945   18.0755   13.3371 H   0  0  0  0  0  0
    3.2102   16.8349   13.7632 H   0  0  0  0  0  0
    2.6331   17.3372   12.2392 H   0  0  0  0  0  0
    7.5094   21.1264    8.1577 H   0  0  0  0  0  0
  1  2  1  0  0  0
  1  6  2  0  0  0
  2  3  1  0  0  0
  2 11  1  0  0  0
  3  4  2  0  0  0
  4  5  1  0  0  0
  5  6  1  0  0  0
  5 33  1  0  0  0
  7  8  2  0  0  0
  7 12  1  0  0  0
  8  9  1  0  0  0
  8 13  1  0  0  0
  9 10  2  0  0  0
 10 11  1  0  0  0
 11 12  2  0  0  0
 13 14  1  0  0  0
 13 31  2  0  0  0
 14 15  1  0  0  0
 14 34  1  0  0  0
 15 16  1  0  0  0
 15 17  1  0  0  0
 17 18  1  0  0  0
 17 20  1  0  0  0
 18 19  1  0  0  0
 18 30  2  0  0  0
 19 32  1  0  0  0
 20 26  1  0  0  0
 21 22  2  0  0  0
 21 26  1  0  0  0
 22 23  1  0  0  0
 22 27  1  0  0  0
 23 24  2  0  0  0
 24 25  1  0  0  0
 25 26  2  0  0  0
 27 28  2  0  0  0
 27 29  1  0  0  0
 28 35  1  0  0  0
 29 36  1  0  0  0
 29 37  1  0  0  0
 33 38  1  0  0  0
M  END
>  <CHROM.0>
-57.18598368,163.21467347,-128.16720732,59.60586105,-60.66992230,-43.99622626
145.00683981

>  <CHROM.1>
-20.54794108,79.68630662,-99.15988073,-134.68987753,159.33812197,-79.75758953
-108.85600653,-123.86513938,130.71916332,-178.43224292,3.87531272,18.34695972
15.91363169,1.25578460,-0.50018730,-1.23444498

>  <FORMUL>
      FXV    C25 H27 N4 O4 1+

>  <HET>
 FXV  A 401      33

>  <HETNAM>
     FXV METHYL-3-(4'-N-OXOPYRIDYLPHENOYL)-3-METHYL-2-(M-AMIDINO
   2 FXV BENZYL)-PROPIONATE

>  <HETSYN>
     FXV FXV673

>  <Name>
FXV.pdb

>  <RI>
0

>  <Rbt.Current_Directory>
/home/malgorzata/Desktop/rDOCK_IFD/Wyniki/8_factor_Xa2

>  <Rbt.Executable>
rbdock ($Id: //depot/dev/client3/rdock/2013.1/src/exe/rbdock.cxx#4 $)

>  <Rbt.Library>
libRbt.so (2013.1, Build901 2013/11/27)

>  <Rbt.Parameter_File>
/home/malgorzata/Desktop/rDock_2013.1_src/data/scripts/soft_docking.prm

>  <Rbt.Receptor>
cavity.prm

>  <SCORE>
-29.5261

>  <SCORE.INTER>
-29.4127

>  <SCORE.INTER.CONST>
1

>  <SCORE.INTER.POLAR>
-1.48746

>  <SCORE.INTER.REPUL>
0.641669

>  <SCORE.INTER.ROT>
9

>  <SCORE.INTER.VDW>
-41.9637

>  <SCORE.INTER.norm>
-0.891295

>  <SCORE.INTRA>
4.96795

>  <SCORE.INTRA.DIHEDRAL>
33.8084

>  <SCORE.INTRA.DIHEDRAL.0>
8.37942

>  <SCORE.INTRA.POLAR>
0

>  <SCORE.INTRA.POLAR.0>
0

>  <SCORE.INTRA.REPUL>
0

>  <SCORE.INTRA.REPUL.0>
0

>  <SCORE.INTRA.VDW>
-1.79374

>  <SCORE.INTRA.VDW.0>
-0.0658046

>  <SCORE.INTRA.norm>
0.150544

>  <SCORE.RESTR>
0.323286

>  <SCORE.RESTR.CAVITY>
0.0646572

>  <SCORE.RESTR.norm>
0.00979655

>  <SCORE.SYSTEM>
-5.4046

>  <SCORE.SYSTEM.CONST>
0

>  <SCORE.SYSTEM.DIHEDRAL>
3.9245

>  <SCORE.SYSTEM.POLAR>
-1.29805

>  <SCORE.SYSTEM.VDW>
-2.95349

>  <SCORE.SYSTEM.norm>
-0.163776

>  <SCORE.heavy>
33

>  <SCORE.norm>
-0.89473

$$$$
FXV.pdb
  rDOCK(R)          3D
libRbt.so/2013.1/901 2013/11/27
 38 40  0  0  0  0  0  0  0  0999 V2000
    0.6795   19.2773    8.7618 C   0  0  0  0  0  0
    1.9338   19.2430    9.4567 C   0  0  0  0  0  0
    3.1276   19.5554    8.7102 C   0  0  0  0  0  0
    3.0423   19.8851    7.3176 C   0  0  0  0  0  0
    1.8355   19.9133    6.6631 N   0  0  0  0  0  0
    0.6768   19.6143    7.3753 C   0  0  0  0  0  0
    1.3987   17.3633   12.8165 C   0  0  0  0  0  0
    2.1280   18.2175   13.7510 C   0  0  0  0  0  0
    2.7679   19.3997   13.2308 C   0  0  0  0  0  0
    2.6991   19.7350   11.8453 C   0  0  0  0  0  0
    1.9905   18.9036   10.9155 C   0  0  0  0  0  0
    1.3478   17.7240   11.4283 C   0  0  0  0  0  0
    2.2603   17.9341   15.1758 C   0  0  0  0  0  0
    2.2882   19.0258   15.9649 N   0  0  0  0  0  0
    2.3700   18.9591   17.4021 C   0  0  0  0  0  0
    1.5179   20.1142   17.9717 C   0  0  0  0  0  0
    3.8888   19.0055   17.8144 C   0  0  0  0  0  0
    4.0045   19.2046   19.3371 C   0  0  0  0  0  0
    3.6858   18.0691   20.0153 O   0  0  0  0  0  0
    4.7349   20.1057   17.0276 C   0  0  0  0  0  0
    5.4167   20.2087   14.4834 C   0  0  0  0  0  0
    6.1917   19.7008   13.3527 C   0  0  0  0  0  0
    7.0859   18.5768   13.5738 C   0  0  0  0  0  0
    7.2058   17.9835   14.8711 C   0  0  0  0  0  0
    6.4367   18.4917   15.9778 C   0  0  0  0  0  0
    5.5340   19.6072   15.8130 C   0  0  0  0  0  0
    6.0783   20.2995   12.0206 C   0  0  0  0  0  0
    6.0770   21.6240   11.8441 N   0  0  0  0  0  0
    5.9784   19.4953   10.9471 N   0  0  0  0  0  0
    4.3192   20.2247   19.8446 O   0  0  0  0  0  0
    2.3211   16.7761   15.6305 O   0  0  0  0  0  0
    4.5538   17.4951   20.9958 C   0  0  0  0  0  0
    1.7524   20.2257    5.3394 O   0  0  0  0  0  0
    2.2508   19.9125   15.5388 H   0  0  0  0  0  0
    6.1495   22.2241   12.6212 H   0  0  0  0  0  0
    5.9781   18.5176   11.0627 H   0  0  0  0  0  0
    5.9056   19.8844   10.0456 H   0  0  0  0  0  0
    2.2417   21.0459    5.1694 H   0  0  0  0  0  0
  1  2  1  0  0  0
  1  6  2  0  0  0
  2  3  1  0  0  0
  2 11  1  0  0  0
  3  4  2  0  0  0
  4  5  1  0  0  0
  5  6  1  0  0  0
  5 33  1  0  0  0
  7  8  2  0  0  0
  7 12  1  0  0  0
  8  9  1  0  0  0
  8 13  1  0  0  0
  9 10  2  0  0  0
 10 11  1  0  0  0
 11 12  2  0  0  0
 13 14  1  0  0  0
 13 31  2  0  0  0
 14 15  1  0  0  0
 14 34  1  0  0  0
 15 16  1  0  0  0
 15 17  1  0  0  0
 17 18  1  0  0  0
 17 20  1  0  0  0
 18 19  1  0  0  0
 18 30  2  0  0  0
 19 32  1  0  0  0
 20 26  1  0  0  0
 21 22  2  0  0  0
 21 26  1  0  0  0
 22 23  1  0  0  0
 22 27  1  0  0  0
 23 24  2  0  0  0
 24 25  1  0  0  0
 25 26  2  0  0  0
 27 28  2  0  0  0
 27 29  1  0  0  0
 28 35  1  0  0  0
 29 36  1  0  0  0
 29 37  1  0  0  0
 33 38  1  0  0  0
M  END
>  <CHROM.0>
12.17961897,22.37253890,-101.08278474,-39.60647939,-60.66992230,165.44536690
-6.99083046

>  <CHROM.1>
-129.48570311,-50.09186441,-146.08602395,-144.00521506,169.35892143,73.89214581
-97.50156789,127.21751503,126.57473879,44.74999718,3.54672674,19.16176755
13.60879622,1.74966924,-0.22867089,-1.45009278

>  <FORMUL>
      FXV    C25 H27 N4 O4 1+

>  <HET>
 FXV  A 401      33

>  <HETNAM>
     FXV METHYL-3-(4'-N-OXOPYRIDYLPHENOYL)-3-METHYL-2-(M-AMIDINO
   2 FXV BENZYL)-PROPIONATE

>  <HETSYN>
     FXV FXV673

>  <Name>
FXV.pdb

>  <RI>
0

>  <Rbt.Current_Directory>
/home/malgorzata/Desktop/rDOCK_IFD/Wyniki/8_factor_Xa2

>  <Rbt.Executable>
rbdock ($Id: //depot/dev/client3/rdock/2013.1/src/exe/rbdock.cxx#4 $)

>  <Rbt.Library>
libRbt.so (2013.1, Build901 2013/11/27)

>  <Rbt.Parameter_File>
/home/malgorzata/Desktop/rDock_2013.1_src/data/scripts/soft_docking.prm

>  <Rbt.Receptor>
cavity.prm

>  <SCORE>
-31.5087

>  <SCORE.INTER>
-33.9347

>  <SCORE.INTER.CONST>
1

>  <SCORE.INTER.POLAR>
-1.63121

>  <SCORE.INTER.REPUL>
0.377914

>  <SCORE.INTER.ROT>
9

>  <SCORE.INTER.VDW>
-44.6781

>  <SCORE.INTER.norm>
-1.02832

>  <SCORE.INTRA>
1.6834

>  <SCORE.INTRA.DIHEDRAL>
27.004

>  <SCORE.INTRA.DIHEDRAL.0>
8.37942

>  <SCORE.INTRA.POLAR>
0

>  <SCORE.INTRA.POLAR.0>
0

>  <SCORE.INTRA.REPUL>
0

>  <SCORE.INTRA.REPUL.0>
0

>  <SCORE.INTRA.VDW>
-3.7174

>  <SCORE.INTRA.VDW.0>
-0.0658046

>  <SCORE.INTRA.norm>
0.0510123

>  <SCORE.RESTR>
5.83034

>  <SCORE.RESTR.CAVITY>
1.16607

>  <SCORE.RESTR.norm>
0.176677

>  <SCORE.SYSTEM>
-5.08779

>  <SCORE.SYSTEM.CONST>
0

>  <SCORE.SYSTEM.DIHEDRAL>
4.05197

>  <SCORE.SYSTEM.POLAR>
-1.29805

>  <SCORE.SYSTEM.VDW>
-2.70042

>  <SCORE.SYSTEM.norm>
-0.154175

>  <SCORE.heavy>
33

>  <SCORE.norm>
-0.954809

$$$$
FXV.pdb
  rDOCK(R)          3D
libRbt.so/2013.1/901 2013/11/27
 38 40  0  0  0  0  0  0  0  0999 V2000
    6.0516   19.6529   12.9514 C   0  0  0  0  0  0
    4.8470   19.6504   12.1728 C   0  0  0  0  0  0
    4.8263   20.4291   10.9590 C   0  0  0  0  0  0
    5.9831   21.1772   10.5619 C   0  0  0  0  0  0
    7.1302   21.1726   11.3166 N   0  0  0  0  0  0
    7.1606   20.4229   12.4898 C   0  0  0  0  0  0
    1.1620   18.6185   12.8539 C   0  0  0  0  0  0
    1.3307   17.2835   13.4235 C   0  0  0  0  0  0
    2.6709   16.7738   13.5707 C   0  0  0  0  0  0
    3.8070   17.5409   13.1736 C   0  0  0  0  0  0
    3.6565   18.8510   12.6090 C   0  0  0  0  0  0
    2.3223   19.3665   12.4616 C   0  0  0  0  0  0
    0.2212   16.4307   13.8354 C   0  0  0  0  0  0
   -0.4019   16.8259   14.9626 N   0  0  0  0  0  0
   -1.5471   16.1450   15.5119 C   0  0  0  0  0  0
   -2.8095   16.8914   15.0285 C   0  0  0  0  0  0
   -1.3845   16.0860   17.0768 C   0  0  0  0  0  0
   -2.0075   14.7831   17.6117 C   0  0  0  0  0  0
   -1.3449   14.3259   18.7085 O   0  0  0  0  0  0
   -1.9809   17.3579   17.8332 C   0  0  0  0  0  0
    0.4512   18.0063   18.6158 C   0  0  0  0  0  0
    1.3934   18.9795   19.1657 C   0  0  0  0  0  0
    0.9030   20.3052   19.5035 C   0  0  0  0  0  0
   -0.4714   20.6492   19.2989 C   0  0  0  0  0  0
   -1.3910   19.6821   18.7571 C   0  0  0  0  0  0
   -0.9558   18.3509   18.4037 C   0  0  0  0  0  0
    2.8022   18.6398   19.3794 C   0  0  0  0  0  0
    3.6194   19.4383   20.0722 N   0  0  0  0  0  0
    3.2842   17.4922   18.8698 N   0  0  0  0  0  0
   -2.9376   14.2475   17.1165 O   0  0  0  0  0  0
   -0.1367   15.4293   13.1870 O   0  0  0  0  0  0
   -2.0275   13.8115   19.8547 C   0  0  0  0  0  0
    8.2304   21.8835   10.9412 O   0  0  0  0  0  0
   -0.0581   17.6188   15.4342 H   0  0  0  0  0  0
    3.2797   20.2812   20.4506 H   0  0  0  0  0  0
    2.6930   16.8946   18.3573 H   0  0  0  0  0  0
    4.2281   17.2496   19.0093 H   0  0  0  0  0  0
    8.4070   22.5762   11.5970 H   0  0  0  0  0  0
  1  2  1  0  0  0
  1  6  2  0  0  0
  2  3  1  0  0  0
  2 11  1  0  0  0
  3  4  2  0  0  0
  4  5  1  0  0  0
  5  6  1  0  0  0
  5 33  1  0  0  0
  7  8  2  0  0  0
  7 12  1  0  0  0
  8  9  1  0  0  0
  8 13  1  0  0  0
  9 10  2  0  0  0
 10 11  1  0  0  0
 11 12  2  0  0  0
 13 14  1  0  0  0
 13 31  2  0  0  0
 14 15  1  0  0  0
 14 34  1  0  0  0
 15 16  1  0  0  0
 15 17  1  0  0  0
 17 18  1  0  0  0
 17 20  1  0  0  0
 18 19  1  0  0  0
 18 30  2  0  0  0
 19 32  1  0  0  0
 20 26  1  0  0  0
 21 22  2  0  0  0
 21 26  1  0  0  0
 22 23  1  0  0  0
 22 27  1  0  0  0
 23 24  2  0  0  0
 24 25  1  0  0  0
 25 26  2  0  0  0
 27 28  2  0  0  0
 27 29  1  0  0  0
 28 35  1  0  0  0
 29 36  1  0  0  0
 29 37  1  0  0  0
 33 38  1  0  0  0
M  END
>  <CHROM.0>
-56.22419161,-173.49652830,13.37901823,-40.95761632,-60.66992230,12.60339583
-145.42288006

>  <CHROM.1>
-39.88080952,115.59231559,-72.50803483,-96.66737818,-146.77668136,147.74075030
-106.67696307,137.50509654,-17.69413780,-169.16173624,1.57899750,18.03535766
15.54196203,-0.51139626,0.64863581,1.31780917

>  <FORMUL>
      FXV    C25 H27 N4 O4 1+

>  <HET>
 FXV  A 401      33

>  <HETNAM>
     FXV METHYL-3-(4'-N-OXOPYRIDYLPHENOYL)-3-METHYL-2-(M-AMIDINO
   2 FXV BENZYL)-PROPIONATE

>  <HETSYN>
     FXV FXV673

>  <Name>
FXV.pdb

>  <RI>
0

>  <Rbt.Current_Directory>
/home/malgorzata/Desktop/rDOCK_IFD/Wyniki/8_factor_Xa2

>  <Rbt.Executable>
rbdock ($Id: //depot/dev/client3/rdock/2013.1/src/exe/rbdock.cxx#4 $)

>  <Rbt.Library>
libRbt.so (2013.1, Build901 2013/11/27)

>  <Rbt.Parameter_File>
/home/malgorzata/Desktop/rDock_2013.1_src/data/scripts/soft_docking.prm

>  <Rbt.Receptor>
cavity.prm

>  <SCORE>
-22.3829

>  <SCORE.INTER>
-22.2386

>  <SCORE.INTER.CONST>
1

>  <SCORE.INTER.POLAR>
-0.328121

>  <SCORE.INTER.REPUL>
0.164626

>  <SCORE.INTER.ROT>
9

>  <SCORE.INTER.VDW>
-36.3461

>  <SCORE.INTER.norm>
-0.673896

>  <SCORE.INTRA>
4.82685

>  <SCORE.INTRA.DIHEDRAL>
30.0702

>  <SCORE.INTRA.DIHEDRAL.0>
8.37942

>  <SCORE.INTRA.POLAR>
0

>  <SCORE.INTRA.POLAR.0>
0

>  <SCORE.INTRA.REPUL>
0

>  <SCORE.INTRA.REPUL.0>
0

>  <SCORE.INTRA.VDW>
-1.18719

>  <SCORE.INTRA.VDW.0>
-0.0658046

>  <SCORE.INTRA.norm>
0.146268

>  <SCORE.RESTR>
0

>  <SCORE.RESTR.CAVITY>
0

>  <SCORE.RESTR.norm>
0

>  <SCORE.SYSTEM>
-4.97118

>  <SCORE.SYSTEM.CONST>
0

>  <SCORE.SYSTEM.DIHEDRAL>
3.14846

>  <SCORE.SYSTEM.POLAR>
-1.29819

>  <SCORE.SYSTEM.REPUL>
0.052856

>  <SCORE.SYSTEM.VDW>
-2.39585

>  <SCORE.SYSTEM.norm>
-0.150642

>  <SCORE.heavy>
33

>  <SCORE.norm>
-0.67827

$$$$
FXV.pdb
  rDOCK(R)          3D
libRbt.so/2013.1/901 2013/11/27
 38 40  0  0  0  0  0  0  0  0999 V2000
    1.0269   17.0562   14.2147 C   0  0  0  0  0  0
   -0.1455   17.2812   15.0097 C   0  0  0  0  0  0
   -1.2876   16.4298   14.7839 C   0  0  0  0  0  0
   -1.2334   15.3984   13.7896 C   0  0  0  0  0  0
   -0.1054   15.1938   13.0338 N   0  0  0  0  0  0
    1.0032   16.0098   13.2450 C   0  0  0  0  0  0
   -0.9815   19.2312   18.2664 C   0  0  0  0  0  0
   -0.1910   20.4477   18.0921 C   0  0  0  0  0  0
    0.5892   20.5823   16.8876 C   0  0  0  0  0  0
    0.5984   19.5631   15.8887 C   0  0  0  0  0  0
   -0.1692   18.3617   16.0482 C   0  0  0  0  0  0
   -0.9517   18.2221   17.2463 C   0  0  0  0  0  0
   -0.1325   21.5252   19.0737 C   0  0  0  0  0  0
   -1.0707   22.4793   18.9164 N   0  0  0  0  0  0
   -1.2098   23.6041   19.8064 C   0  0  0  0  0  0
   -1.6490   23.0582   21.1825 C   0  0  0  0  0  0
   -2.2176   24.6260   19.1592 C   0  0  0  0  0  0
   -3.6617   24.1440   19.3909 C   0  0  0  0  0  0
   -4.5504   25.1710   19.3104 O   0  0  0  0  0  0
   -1.9477   24.9015   17.6111 C   0  0  0  0  0  0
   -3.6852   26.8364   17.1802 C   0  0  0  0  0  0
   -4.0044   28.1692   16.6715 C   0  0  0  0  0  0
   -2.9401   28.9558   16.0712 C   0  0  0  0  0  0
   -1.6090   28.4364   15.9834 C   0  0  0  0  0  0
   -1.3060   27.1215   16.4872 C   0  0  0  0  0  0
   -2.3262   26.2985   17.0940 C   0  0  0  0  0  0
   -5.3624   28.7121   16.7558 C   0  0  0  0  0  0
   -6.4371   27.9548   16.5173 N   0  0  0  0  0  0
   -5.5320   30.0046   17.0872 N   0  0  0  0  0  0
   -3.9509   23.0214   19.6221 O   0  0  0  0  0  0
    0.7033   21.5521   19.9969 O   0  0  0  0  0  0
   -5.9094   24.9765   18.9112 C   0  0  0  0  0  0
   -0.0522   14.2144   12.0878 O   0  0  0  0  0  0
   -1.6917   22.4043   18.1562 H   0  0  0  0  0  0
   -6.3273   27.0073   16.2738 H   0  0  0  0  0  0
   -4.7488   30.5739   17.2656 H   0  0  0  0  0  0
   -6.4393   30.3814   17.1514 H   0  0  0  0  0  0
   -0.8728   13.6977   12.1108 H   0  0  0  0  0  0
  1  2  1  0  0  0
  1  6  2  0  0  0
  2  3  1  0  0  0
  2 11  1  0  0  0
  3  4  2  0  0  0
  4  5  1  0  0  0
  5  6  1  0  0  0
  5 33  1  0  0  0
  7  8  2  0  0  0
  7 12  1  0  0  0
  8  9  1  0  0  0
  8 13  1  0  0  0
  9 10  2  0  0  0
 10 11  1  0  0  0
 11 12  2  0  0  0
 13 14  1  0  0  0
 13 31  2  0  0  0
 14 15  1  0  0  0
 14 34  1  0  0  0
 15 16  1  0  0  0
 15 17  1  0  0  0
 17 18  1  0  0  0
 17 20  1  0  0  0
 18 19  1  0  0  0
 18 30  2  0  0  0
 19 32  1  0  0  0
 20 26  1  0  0  0
 21 22  2  0  0  0
 21 26  1  0  0  0
 22 23  1  0  0  0
 22 27  1  0  0  0
 23 24  2  0  0  0
 24 25  1  0  0  0
 25 26  2  0  0  0
 27 28  2  0  0  0
 27 29  1  0  0  0
 28 35  1  0  0  0
 29 36  1  0  0  0
 29 37  1  0  0  0
 33 38  1  0  0  0
M  END
>  <CHROM.0>
164.85081270,-46.08595098,-128.55996946,69.96031385,-60.66992230,47.43146430
-22.93460500

>  <CHROM.1>
30.78504201,-4.20943782,-89.62176106,-66.21136440,79.27848018,157.44700451
-149.56264054,152.24731950,-58.79597561,-40.53929834,-1.89083639,22.40855244
17.03733254,0.66548487,1.13145299,-2.00975237

>  <FORMUL>
      FXV    C25 H27 N4 O4 1+

>  <HET>
 FXV  A 401      33

>  <HETNAM>
     FXV METHYL-3-(4'-N-OXOPYRIDYLPHENOYL)-3-METHYL-2-(M-AMIDINO
   2 FXV BENZYL)-PROPIONATE

>  <HETSYN>
     FXV FXV673

>  <Name>
FXV.pdb

>  <RI>
0

>  <Rbt.Current_Directory>
/home/malgorzata/Desktop/rDOCK_IFD/Wyniki/8_factor_Xa2

>  <Rbt.Executable>
rbdock ($Id: //depot/dev/client3/rdock/2013.1/src/exe/rbdock.cxx#4 $)

>  <Rbt.Library>
libRbt.so (2013.1, Build901 2013/11/27)

>  <Rbt.Parameter_File>
/home/malgorzata/Desktop/rDock_2013.1_src/data/scripts/soft_docking.prm

>  <Rbt.Receptor>
cavity.prm

>  <SCORE>
-18.3237

>  <SCORE.INTER>
-19.6666

>  <SCORE.INTER.CONST>
1

>  <SCORE.INTER.POLAR>
-0.137236

>  <SCORE.INTER.REPUL>
0

>  <SCORE.INTER.ROT>
9

>  <SCORE.INTER.VDW>
-33.6

>  <SCORE.INTER.norm>
-0.595959

>  <SCORE.INTRA>
4.89361

>  <SCORE.INTRA.DIHEDRAL>
22.9614

>  <SCORE.INTRA.DIHEDRAL.0>
8.37942

>  <SCORE.INTRA.POLAR>
0

>  <SCORE.INTRA.POLAR.0>
0

>  <SCORE.INTRA.REPUL>
0

>  <SCORE.INTRA.REPUL.0>
0

>  <SCORE.INTRA.VDW>
0.301337

>  <SCORE.INTRA.VDW.0>
-0.0658046

>  <SCORE.INTRA.norm>
0.148291

>  <SCORE.RESTR>
0.802362

>  <SCORE.RESTR.CAVITY>
0.160472

>  <SCORE.RESTR.norm>
0.024314

>  <SCORE.SYSTEM>
-4.35299

>  <SCORE.SYSTEM.CONST>
0

>  <SCORE.SYSTEM.DIHEDRAL>
6.82787

>  <SCORE.SYSTEM.POLAR>
-1.29805

>  <SCORE.SYSTEM.VDW>
-3.35357

>  <SCORE.SYSTEM.norm>
-0.131909

>  <SCORE.heavy>
33

>  <SCORE.norm>
-0.555262

$$$$
FXV.pdb
  rDOCK(R)          3D
libRbt.so/2013.1/901 2013/11/27
 38 40  0  0  0  0  0  0  0  0999 V2000
   -3.5741   27.2588   18.0796 C   0  0  0  0  0  0
   -3.9379   25.9495   18.5385 C   0  0  0  0  0  0
   -5.2757   25.7586   19.0423 C   0  0  0  0  0  0
   -6.1972   26.8563   19.0771 C   0  0  0  0  0  0
   -5.8365   28.1056   18.6360 N   0  0  0  0  0  0
   -4.5473   28.3000   18.1466 C   0  0  0  0  0  0
   -0.6079   23.9585   18.7731 C   0  0  0  0  0  0
   -1.0433   22.6126   18.4068 C   0  0  0  0  0  0
   -2.4341   22.4145   18.0839 C   0  0  0  0  0  0
   -3.3676   23.4934   18.1193 C   0  0  0  0  0  0
   -2.9554   24.8190   18.4813 C   0  0  0  0  0  0
   -1.5689   25.0240   18.8022 C   0  0  0  0  0  0
   -0.1560   21.4555   18.3657 C   0  0  0  0  0  0
   -0.6584   20.3426   18.9351 N   0  0  0  0  0  0
    0.0420   19.0834   18.9599 C   0  0  0  0  0  0
    1.3129   19.2736   19.8162 C   0  0  0  0  0  0
    0.3178   18.6407   17.4744 C   0  0  0  0  0  0
   -1.0142   18.5512   16.7067 C   0  0  0  0  0  0
   -1.9811   17.9504   17.4518 O   0  0  0  0  0  0
    1.1413   17.2797   17.3519 C   0  0  0  0  0  0
    3.7232   16.9075   17.7301 C   0  0  0  0  0  0
    5.1084   17.0579   17.2873 C   0  0  0  0  0  0
    5.3634   17.7253   16.0218 C   0  0  0  0  0  0
    4.2810   18.2210   15.2268 C   0  0  0  0  0  0
    2.9202   18.0679   15.6733 C   0  0  0  0  0  0
    2.6111   17.4118   16.9224 C   0  0  0  0  0  0
    6.2246   16.5546   18.0915 C   0  0  0  0  0  0
    6.1535   16.4830   19.4239 N   0  0  0  0  0  0
    7.3477   16.1491   17.4725 N   0  0  0  0  0  0
   -1.1646   18.9463   15.6028 O   0  0  0  0  0  0
    0.9676   21.4857   17.8290 O   0  0  0  0  0  0
   -3.3736   18.1926   17.2361 C   0  0  0  0  0  0
   -6.7106   29.1505   18.6690 O   0  0  0  0  0  0
   -1.5476   20.3920   19.3547 H   0  0  0  0  0  0
    5.3373   16.7764   19.8897 H   0  0  0  0  0  0
    7.4135   16.1965   16.4913 H   0  0  0  0  0  0
    8.1040   15.8050   18.0005 H   0  0  0  0  0  0
   -6.2168   29.9853   18.6667 H   0  0  0  0  0  0
  1  2  1  0  0  0
  1  6  2  0  0  0
  2  3  1  0  0  0
  2 11  1  0  0  0
  3  4  2  0  0  0
  4  5  1  0  0  0
  5  6  1  0  0  0
  5 33  1  0  0  0
  7  8  2  0  0  0
  7 12  1  0  0  0
  8  9  1  0  0  0
  8 13  1  0  0  0
  9 10  2  0  0  0
 10 11  1  0  0  0
 11 12  2  0  0  0
 13 14  1  0  0  0
 13 31  2  0  0  0
 14 15  1  0  0  0
 14 34  1  0  0  0
 15 16  1  0  0  0
 15 17  1  0  0  0
 17 18  1  0  0  0
 17 20  1  0  0  0
 18 19  1  0  0  0
 18 30  2  0  0  0
 19 32  1  0  0  0
 20 26  1  0  0  0
 21 22  2  0  0  0
 21 26  1  0  0  0
 22 23  1  0  0  0
 22 27  1  0  0  0
 23 24  2  0  0  0
 24 25  1  0  0  0
 25 26  2  0  0  0
 27 28  2  0  0  0
 27 29  1  0  0  0
 28 35  1  0  0  0
 29 36  1  0  0  0
 29 37  1  0  0  0
 33 38  1  0  0  0
M  END
>  <CHROM.0>
60.53013160,-165.50280825,-57.91929500,107.33953549,-60.66992230,114.30947849
10.72251801

>  <CHROM.1>
-140.94631876,157.59563921,135.01081234,64.78870862,-57.26305970,-43.06378339
-106.19903064,154.83534460,122.40872842,-29.69540700,-0.29867228,21.18249014
17.89827167,-2.32342215,0.08932370,-2.93363014

>  <FORMUL>
      FXV    C25 H27 N4 O4 1+

>  <HET>
 FXV  A 401      33

>  <HETNAM>
     FXV METHYL-3-(4'-N-OXOPYRIDYLPHENOYL)-3-METHYL-2-(M-AMIDINO
   2 FXV BENZYL)-PROPIONATE

>  <HETSYN>
     FXV FXV673

>  <Name>
FXV.pdb

>  <RI>
0

>  <Rbt.Current_Directory>
/home/malgorzata/Desktop/rDOCK_IFD/Wyniki/8_factor_Xa2

>  <Rbt.Executable>
rbdock ($Id: //depot/dev/client3/rdock/2013.1/src/exe/rbdock.cxx#4 $)

>  <Rbt.Library>
libRbt.so (2013.1, Build901 2013/11/27)

>  <Rbt.Parameter_File>
/home/malgorzata/Desktop/rDock_2013.1_src/data/scripts/soft_docking.prm

>  <Rbt.Receptor>
cavity.prm

>  <SCORE>
-21.9729

>  <SCORE.INTER>
-24.5053

>  <SCORE.INTER.CONST>
1

>  <SCORE.INTER.POLAR>
-1.86083

>  <SCORE.INTER.REPUL>
0.92855

>  <SCORE.INTER.ROT>
9

>  <SCORE.INTER.VDW>
-37.2213

>  <SCORE.INTER.norm>
-0.742586

>  <SCORE.INTRA>
1.50694

>  <SCORE.INTRA.DIHEDRAL>
14.8451

>  <SCORE.INTRA.DIHEDRAL.0>
8.37942

>  <SCORE.INTRA.POLAR>
0

>  <SCORE.INTRA.POLAR.0>
0

>  <SCORE.INTRA.REPUL>
0

>  <SCORE.INTRA.REPUL.0>
0

>  <SCORE.INTRA.VDW>
-1.46207

>  <SCORE.INTRA.VDW.0>
-0.0658046

>  <SCORE.INTRA.norm>
0.0456649

>  <SCORE.RESTR>
2.51551

>  <SCORE.RESTR.CAVITY>
0.503103

>  <SCORE.RESTR.norm>
0.0762277

>  <SCORE.SYSTEM>
-1.48997

>  <SCORE.SYSTEM.CONST>
0

>  <SCORE.SYSTEM.DIHEDRAL>
11.9101

>  <SCORE.SYSTEM.POLAR>
-1.29805

>  <SCORE.SYSTEM.VDW>
-3.03165

>  <SCORE.SYSTEM.norm>
-0.0451508

>  <SCORE.heavy>
33

>  <SCORE.norm>
-0.665844

$$$$
FXV.pdb
  rDOCK(R)          3D
libRbt.so/2013.1/901 2013/11/27
 38 40  0  0  0  0  0  0  0  0999 V2000
    5.7296   19.3198   12.5393 C   0  0  0  0  0  0
    4.3661   19.7318   12.3714 C   0  0  0  0  0  0
    4.1117   21.1221   12.0839 C   0  0  0  0  0  0
    5.2012   22.0477   11.9758 C   0  0  0  0  0  0
    6.5024   21.6411   12.1400 N   0  0  0  0  0  0
    6.7586   20.3005   12.4167 C   0  0  0  0  0  0
    2.2384   16.7113   13.5786 C   0  0  0  0  0  0
    1.0576   16.8233   12.7252 C   0  0  0  0  0  0
    1.0135   17.8991   11.7669 C   0  0  0  0  0  0
    2.0850   18.8341   11.6474 C   0  0  0  0  0  0
    3.2484   18.7392   12.4813 C   0  0  0  0  0  0
    3.2999   17.6669   13.4378 C   0  0  0  0  0  0
   -0.0857   15.9204   12.7990 C   0  0  0  0  0  0
   -1.0812   16.3400   13.6039 N   0  0  0  0  0  0
   -2.3138   15.6143   13.7792 C   0  0  0  0  0  0
   -2.9712   15.4693   12.3895 C   0  0  0  0  0  0
   -3.1923   16.3789   14.8387 C   0  0  0  0  0  0
   -4.1981   15.4026   15.4765 C   0  0  0  0  0  0
   -4.2999   14.2509   14.7594 O   0  0  0  0  0  0
   -3.9352   17.6627   14.2510 C   0  0  0  0  0  0
   -2.8451   19.2834   16.0210 C   0  0  0  0  0  0
   -2.3245   20.5986   16.3903 C   0  0  0  0  0  0
   -2.3443   21.6570   15.3946 C   0  0  0  0  0  0
   -2.8599   21.4143   14.0814 C   0  0  0  0  0  0
   -3.3710   20.1147   13.7287 C   0  0  0  0  0  0
   -3.3739   19.0277   14.6799 C   0  0  0  0  0  0
   -1.7938   20.8594   17.7306 C   0  0  0  0  0  0
   -1.0804   21.9562   18.0018 N   0  0  0  0  0  0
   -2.0355   19.9750   18.7146 N   0  0  0  0  0  0
   -4.8104   15.6386   16.4596 O   0  0  0  0  0  0
   -0.1480   14.8568   12.1538 O   0  0  0  0  0  0
   -5.3865   13.3374   14.9303 C   0  0  0  0  0  0
    7.5393   22.5195   12.0383 O   0  0  0  0  0  0
   -0.9607   17.1839   14.0966 H   0  0  0  0  0  0
   -0.8962   22.6118   17.2908 H   0  0  0  0  0  0
   -2.5596   19.1626   18.5286 H   0  0  0  0  0  0
   -1.6881   20.1398   19.6210 H   0  0  0  0  0  0
    7.7086   22.9215   12.9047 H   0  0  0  0  0  0
  1  2  1  0  0  0
  1  6  2  0  0  0
  2  3  1  0  0  0
  2 11  1  0  0  0
  3  4  2  0  0  0
  4  5  1  0  0  0
  5  6  1  0  0  0
  5 33  1  0  0  0
  7  8  2  0  0  0
  7 12  1  0  0  0
  8  9  1  0  0  0
  8 13  1  0  0  0
  9 10  2  0  0  0
 10 11  1  0  0  0
 11 12  2  0  0  0
 13 14  1  0  0  0
 13 31  2  0  0  0
 14 15  1  0  0  0
 14 34  1  0  0  0
 15 16  1  0  0  0
 15 17  1  0  0  0
 17 18  1  0  0  0
 17 20  1  0  0  0
 18 19  1  0  0  0
 18 30  2  0  0  0
 19 32  1  0  0  0
 20 26  1  0  0  0
 21 22  2  0  0  0
 21 26  1  0  0  0
 22 23  1  0  0  0
 22 27  1  0  0  0
 23 24  2  0  0  0
 24 25  1  0  0  0
 25 26  2  0  0  0
 27 28  2  0  0  0
 27 29  1  0  0  0
 28 35  1  0  0  0
 29 36  1  0  0  0
 29 37  1  0  0  0
 33 38  1  0  0  0
M  END
>  <CHROM.0>
-150.77497448,-41.40612340,-3.84353776,62.00825192,-60.66992230,102.34378433
37.55091853

>  <CHROM.1>
-143.81215554,88.27406374,93.05797683,-58.40601948,-156.93521261,-14.82232011
-106.80517377,-163.72737707,-36.61954243,166.48661275,-0.07006964,18.41552602
14.00835430,-0.22229049,-0.45428451,-2.65061279

>  <FORMUL>
      FXV    C25 H27 N4 O4 1+

>  <HET>
 FXV  A 401      33

>  <HETNAM>
     FXV METHYL-3-(4'-N-OXOPYRIDYLPHENOYL)-3-METHYL-2-(M-AMIDINO
   2 FXV BENZYL)-PROPIONATE

>  <HETSYN>
     FXV FXV673

>  <Name>
FXV.pdb

>  <RI>
0

>  <Rbt.Current_Directory>
/home/malgorzata/Desktop/rDOCK_IFD/Wyniki/8_factor_Xa2

>  <Rbt.Executable>
rbdock ($Id: //depot/dev/client3/rdock/2013.1/src/exe/rbdock.cxx#4 $)

>  <Rbt.Library>
libRbt.so (2013.1, Build901 2013/11/27)

>  <Rbt.Parameter_File>
/home/malgorzata/Desktop/rDock_2013.1_src/data/scripts/soft_docking.prm

>  <Rbt.Receptor>
cavity.prm

>  <SCORE>
-20.6161

>  <SCORE.INTER>
-24.522

>  <SCORE.INTER.CONST>
1

>  <SCORE.INTER.POLAR>
-0.399811

>  <SCORE.INTER.REPUL>
0

>  <SCORE.INTER.ROT>
9

>  <SCORE.INTER.VDW>
-37.5627

>  <SCORE.INTER.norm>
-0.743091

>  <SCORE.INTRA>
5.90287

>  <SCORE.INTRA.DIHEDRAL>
23.3757

>  <SCORE.INTRA.DIHEDRAL.0>
8.37942

>  <SCORE.INTRA.POLAR>
0

>  <SCORE.INTRA.POLAR.0>
0

>  <SCORE.INTRA.REPUL>
0

>  <SCORE.INTRA.REPUL.0>
0

>  <SCORE.INTRA.VDW>
1.22772

>  <SCORE.INTRA.VDW.0>
-0.0658046

>  <SCORE.INTRA.norm>
0.178875

>  <SCORE.RESTR>
1.33182

>  <SCORE.RESTR.CAVITY>
0.266364

>  <SCORE.RESTR.norm>
0.0403581

>  <SCORE.SYSTEM>
-3.3288

>  <SCORE.SYSTEM.CONST>
0

>  <SCORE.SYSTEM.DIHEDRAL>
7.92594

>  <SCORE.SYSTEM.POLAR>
-1.29805

>  <SCORE.SYSTEM.REPUL>
0.0905404

>  <SCORE.SYSTEM.VDW>
-3.33111

>  <SCORE.SYSTEM.norm>
-0.100873

>  <SCORE.heavy>
33

>  <SCORE.norm>
-0.624731

$$$$
FXV.pdb
  rDOCK(R)          3D
libRbt.so/2013.1/901 2013/11/27
 38 40  0  0  0  0  0  0  0  0999 V2000
   -1.3563   15.0058   12.0063 C   0  0  0  0  0  0
   -0.8142   15.6106   13.1884 C   0  0  0  0  0  0
   -1.6418   15.6451   14.3691 C   0  0  0  0  0  0
   -2.9629   15.0890   14.3408 C   0  0  0  0  0  0
   -3.4712   14.5138   13.2022 N   0  0  0  0  0  0
   -2.6795   14.4745   12.0572 C   0  0  0  0  0  0
    2.9217   16.1783   14.0984 C   0  0  0  0  0  0
    3.2907   17.2476   13.1734 C   0  0  0  0  0  0
    2.2772   17.7517   12.2811 C   0  0  0  0  0  0
    0.9496   17.2282   12.2908 C   0  0  0  0  0  0
    0.5741   16.1757   13.1902 C   0  0  0  0  0  0
    1.5797   15.6699   14.0848 C   0  0  0  0  0  0
    4.6290   17.8219   13.0891 C   0  0  0  0  0  0
    4.7388   18.8680   12.2472 N   0  0  0  0  0  0
    5.9642   19.6013   12.0547 C   0  0  0  0  0  0
    6.3654   20.2049   13.4183 C   0  0  0  0  0  0
    5.7323   20.6630   10.9154 C   0  0  0  0  0  0
    6.8440   21.7274   10.9676 C   0  0  0  0  0  0
    8.0556   21.2009   10.6421 O   0  0  0  0  0  0
    4.2887   21.3413   10.9534 C   0  0  0  0  0  0
    3.5437   20.7851    8.4869 C   0  0  0  0  0  0
    2.5442   20.2924    7.5405 C   0  0  0  0  0  0
    1.2620   19.8437    8.0568 C   0  0  0  0  0  0
    0.9869   19.8814    9.4612 C   0  0  0  0  0  0
    1.9788   20.3695   10.3844 C   0  0  0  0  0  0
    3.2695   20.8266    9.9245 C   0  0  0  0  0  0
    2.8138   20.2484    6.1013 C   0  0  0  0  0  0
    3.6570   21.1055    5.5186 N   0  0  0  0  0  0
    2.2010   19.3177    5.3481 N   0  0  0  0  0  0
    6.6601   22.8560   11.2669 O   0  0  0  0  0  0
    5.5897   17.3949   13.7571 O   0  0  0  0  0  0
    9.2235   22.0105   10.4842 C   0  0  0  0  0  0
   -4.7269   13.9854   13.1731 O   0  0  0  0  0  0
    3.9426   19.1450   11.7384 H   0  0  0  0  0  0
    4.1124   21.7916    6.0582 H   0  0  0  0  0  0
    1.5772   18.6799    5.7645 H   0  0  0  0  0  0
    2.3761   19.2743    4.3802 H   0  0  0  0  0  0
   -4.8264   13.3482   13.8976 H   0  0  0  0  0  0
  1  2  1  0  0  0
  1  6  2  0  0  0
  2  3  1  0  0  0
  2 11  1  0  0  0
  3  4  2  0  0  0
  4  5  1  0  0  0
  5  6  1  0  0  0
  5 33  1  0  0  0
  7  8  2  0  0  0
  7 12  1  0  0  0
  8  9  1  0  0  0
  8 13  1  0  0  0
  9 10  2  0  0  0
 10 11  1  0  0  0
 11 12  2  0  0  0
 13 14  1  0  0  0
 13 31  2  0  0  0
 14 15  1  0  0  0
 14 34  1  0  0  0
 15 16  1  0  0  0
 15 17  1  0  0  0
 17 18  1  0  0  0
 17 20  1  0  0  0
 18 19  1  0  0  0
 18 30  2  0  0  0
 19 32  1  0  0  0
 20 26  1  0  0  0
 21 22  2  0  0  0
 21 26  1  0  0  0
 22 23  1  0  0  0
 22 27  1  0  0  0
 23 24  2  0  0  0
 24 25  1  0  0  0
 25 26  2  0  0  0
 27 28  2  0  0  0
 27 29  1  0  0  0
 28 35  1  0  0  0
 29 36  1  0  0  0
 29 37  1  0  0  0
 33 38  1  0  0  0
M  END
>  <CHROM.0>
-129.90799673,168.50562735,-85.97927624,44.62233714,-60.66992230,83.98426110
-110.56382760

>  <CHROM.1>
59.55180748,-53.38018826,-175.03749878,-60.50853340,163.09651976,67.01865423
-102.54992832,173.47198541,-53.84420352,-28.49081459,2.60779116,18.54014052
11.26426503,2.57728335,0.46502275,2.02967995

>  <FORMUL>
      FXV    C25 H27 N4 O4 1+

>  <HET>
 FXV  A 401      33

>  <HETNAM>
     FXV METHYL-3-(4'-N-OXOPYRIDYLPHENOYL)-3-METHYL-2-(M-AMIDINO
   2 FXV BENZYL)-PROPIONATE

>  <HETSYN>
     FXV FXV673

>  <Name>
FXV.pdb

>  <RI>
0

>  <Rbt.Current_Directory>
/home/malgorzata/Desktop/rDOCK_IFD/Wyniki/8_factor_Xa2

>  <Rbt.Executable>
rbdock ($Id: //depot/dev/client3/rdock/2013.1/src/exe/rbdock.cxx#4 $)

>  <Rbt.Library>
libRbt.so (2013.1, Build901 2013/11/27)

>  <Rbt.Parameter_File>
/home/malgorzata/Desktop/rDock_2013.1_src/data/scripts/soft_docking.prm

>  <Rbt.Receptor>
cavity.prm

>  <SCORE>
-28.5396

>  <SCORE.INTER>
-32.4406

>  <SCORE.INTER.CONST>
1

>  <SCORE.INTER.POLAR>
-1.35601

>  <SCORE.INTER.REPUL>
0.225972

>  <SCORE.INTER.ROT>
9

>  <SCORE.INTER.VDW>
-43.3601

>  <SCORE.INTER.norm>
-0.98305

>  <SCORE.INTRA>
3.83652

>  <SCORE.INTRA.DIHEDRAL>
6.26268

>  <SCORE.INTRA.DIHEDRAL.0>
8.37942

>  <SCORE.INTRA.POLAR>
0

>  <SCORE.INTRA.POLAR.0>
0

>  <SCORE.INTRA.REPUL>
0

>  <SCORE.INTRA.REPUL.0>
0

>  <SCORE.INTRA.VDW>
2.58398

>  <SCORE.INTRA.VDW.0>
-0.0658046

>  <SCORE.INTRA.norm>
0.116258

>  <SCORE.RESTR>
4.16034

>  <SCORE.RESTR.CAVITY>
0.832069

>  <SCORE.RESTR.norm>
0.126071

>  <SCORE.SYSTEM>
-4.09579

>  <SCORE.SYSTEM.CONST>
0

>  <SCORE.SYSTEM.DIHEDRAL>
7.26931

>  <SCORE.SYSTEM.POLAR>
-1.29805

>  <SCORE.SYSTEM.VDW>
-3.3171

>  <SCORE.SYSTEM.norm>
-0.124115

>  <SCORE.heavy>
33

>  <SCORE.norm>
-0.864835

$$$$
FXV.pdb
  rDOCK(R)          3D
libRbt.so/2013.1/901 2013/11/27
 38 40  0  0  0  0  0  0  0  0999 V2000
    0.1007   26.0693   17.3950 C   0  0  0  0  0  0
   -0.6840   25.0510   18.0309 C   0  0  0  0  0  0
   -1.9758   25.4225   18.5537 C   0  0  0  0  0  0
   -2.4417   26.7730   18.4336 C   0  0  0  0  0  0
   -1.6804   27.7394   17.8236 N   0  0  0  0  0  0
   -0.4320   27.3905   17.3145 C   0  0  0  0  0  0
    1.1903   21.9075   19.3398 C   0  0  0  0  0  0
    0.7939   20.8991   18.3594 C   0  0  0  0  0  0
   -0.0798   21.3033   17.2866 C   0  0  0  0  0  0
   -0.5513   22.6458   17.1762 C   0  0  0  0  0  0
   -0.1740   23.6453   18.1336 C   0  0  0  0  0  0
    0.6993   23.2493   19.2049 C   0  0  0  0  0  0
    1.2170   19.5041   18.4135 C   0  0  0  0  0  0
    2.0648   19.1364   17.4331 N   0  0  0  0  0  0
    2.6325   17.8156   17.3344 C   0  0  0  0  0  0
    3.6417   17.6542   18.4919 C   0  0  0  0  0  0
    3.2565   17.6507   15.8983 C   0  0  0  0  0  0
    4.2850   18.7699   15.6509 C   0  0  0  0  0  0
    4.9670   18.5741   14.4900 O   0  0  0  0  0  0
    2.1726   17.6009   14.7286 C   0  0  0  0  0  0
    0.4546   15.8275   13.8060 C   0  0  0  0  0  0
   -0.6455   14.8895   14.0235 C   0  0  0  0  0  0
   -1.1735   14.7396   15.3691 C   0  0  0  0  0  0
   -0.6255   15.4925   16.4563 C   0  0  0  0  0  0
    0.4579   16.4145   16.2304 C   0  0  0  0  0  0
    1.0202   16.6009   14.9130 C   0  0  0  0  0  0
   -1.2146   14.1130   12.9193 C   0  0  0  0  0  0
   -1.9309   14.6911   11.9508 N   0  0  0  0  0  0
   -1.0060   12.7849   12.8764 N   0  0  0  0  0  0
    4.4620   19.6753   16.3898 O   0  0  0  0  0  0
    0.8428   18.7198   19.3058 O   0  0  0  0  0  0
    6.3369   18.1653   14.4677 C   0  0  0  0  0  0
   -2.1211   29.0237   17.7091 O   0  0  0  0  0  0
    2.3085   19.8029   16.7506 H   0  0  0  0  0  0
   -2.0911   15.6623   11.9700 H   0  0  0  0  0  0
   -0.4801   12.3461   13.5836 H   0  0  0  0  0  0
   -1.3794   12.2516   12.1378 H   0  0  0  0  0  0
   -1.6458   29.4655   16.9881 H   0  0  0  0  0  0
  1  2  1  0  0  0
  1  6  2  0  0  0
  2  3  1  0  0  0
  2 11  1  0  0  0
  3  4  2  0  0  0
  4  5  1  0  0  0
  5  6  1  0  0  0
  5 33  1  0  0  0
  7  8  2  0  0  0
  7 12  1  0  0  0
  8  9  1  0  0  0
  8 13  1  0  0  0
  9 10  2  0  0  0
 10 11  1  0  0  0
 11 12  2  0  0  0
 13 14  1  0  0  0
 13 31  2  0  0  0
 14 15  1  0  0  0
 14 34  1  0  0  0
 15 16  1  0  0  0
 15 17  1  0  0  0
 17 18  1  0  0  0
 17 20  1  0  0  0
 18 19  1  0  0  0
 18 30  2  0  0  0
 19 32  1  0  0  0
 20 26  1  0  0  0
 21 22  2  0  0  0
 21 26  1  0  0  0
 22 23  1  0  0  0
 22 27  1  0  0  0
 23 24  2  0  0  0
 24 25  1  0  0  0
 25 26  2  0  0  0
 27 28  2  0  0  0
 27 29  1  0  0  0
 28 35  1  0  0  0
 29 36  1  0  0  0
 29 37  1  0  0  0
 33 38  1  0  0  0
M  END
>  <CHROM.0>
30.71141280,43.38055738,139.68518907,69.28367841,-60.66992230,14.52675989
-95.23775151

>  <CHROM.1>
-96.11261371,-158.50877405,-111.27289962,-70.13040763,56.20315618,172.54301772
-51.03687201,-107.64429181,-141.97094327,-69.43028004,0.77157318,20.00393698
16.51838474,-1.73735221,0.21377621,-2.78074689

>  <FORMUL>
      FXV    C25 H27 N4 O4 1+

>  <HET>
 FXV  A 401      33

>  <HETNAM>
     FXV METHYL-3-(4'-N-OXOPYRIDYLPHENOYL)-3-METHYL-2-(M-AMIDINO
   2 FXV BENZYL)-PROPIONATE

>  <HETSYN>
     FXV FXV673

>  <Name>
FXV.pdb

>  <RI>
0

>  <Rbt.Current_Directory>
/home/malgorzata/Desktop/rDOCK_IFD/Wyniki/8_factor_Xa2

>  <Rbt.Executable>
rbdock ($Id: //depot/dev/client3/rdock/2013.1/src/exe/rbdock.cxx#4 $)

>  <Rbt.Library>
libRbt.so (2013.1, Build901 2013/11/27)

>  <Rbt.Parameter_File>
/home/malgorzata/Desktop/rDock_2013.1_src/data/scripts/soft_docking.prm

>  <Rbt.Receptor>
cavity.prm

>  <SCORE>
-28.728

>  <SCORE.INTER>
-37.7841

>  <SCORE.INTER.CONST>
1

>  <SCORE.INTER.POLAR>
-2.30104

>  <SCORE.INTER.REPUL>
0

>  <SCORE.INTER.ROT>
9

>  <SCORE.INTER.VDW>
-44.3606

>  <SCORE.INTER.norm>
-1.14497

>  <SCORE.INTRA>
6.3117

>  <SCORE.INTRA.DIHEDRAL>
39.1974

>  <SCORE.INTRA.DIHEDRAL.0>
8.37942

>  <SCORE.INTRA.POLAR>
0

>  <SCORE.INTRA.POLAR.0>
0

>  <SCORE.INTRA.REPUL>
0

>  <SCORE.INTRA.REPUL.0>
0

>  <SCORE.INTRA.VDW>
-1.52777

>  <SCORE.INTRA.VDW.0>
-0.0658046

>  <SCORE.INTRA.norm>
0.191264

>  <SCORE.RESTR>
3.38935

>  <SCORE.RESTR.CAVITY>
0.67787

>  <SCORE.RESTR.norm>
0.102708

>  <SCORE.SYSTEM>
-0.644902

>  <SCORE.SYSTEM.CONST>
0

>  <SCORE.SYSTEM.DIHEDRAL>
4.18436

>  <SCORE.SYSTEM.POLAR>
-1.29805

>  <SCORE.SYSTEM.REPUL>
0.87888

>  <SCORE.SYSTEM.VDW>
-2.71813

>  <SCORE.SYSTEM.norm>
-0.0195425

>  <SCORE.heavy>
33

>  <SCORE.norm>
-0.870544

$$$$
FXV.pdb
  rDOCK(R)          3D
libRbt.so/2013.1/901 2013/11/27
 38 40  0  0  0  0  0  0  0  0999 V2000
   -1.5601   26.1969   18.6642 C   0  0  0  0  0  0
   -1.7548   25.2292   17.6236 C   0  0  0  0  0  0
   -2.2439   25.6968   16.3500 C   0  0  0  0  0  0
   -2.5230   27.0889   16.1512 C   0  0  0  0  0  0
   -2.3338   28.0057   17.1558 N   0  0  0  0  0  0
   -1.8607   27.5643   18.3890 C   0  0  0  0  0  0
    0.2206   21.9691   18.3835 C   0  0  0  0  0  0
   -0.8424   20.9670   18.3526 C   0  0  0  0  0  0
   -2.1843   21.4107   18.0698 C   0  0  0  0  0  0
   -2.4780   22.7861   17.8271 C   0  0  0  0  0  0
   -1.4455   23.7815   17.8584 C   0  0  0  0  0  0
   -0.1042   23.3452   18.1376 C   0  0  0  0  0  0
   -0.6269   19.5471   18.6084 C   0  0  0  0  0  0
    0.6602   19.2014   18.8058 N   0  0  0  0  0  0
    1.0782   17.8575   19.1157 C   0  0  0  0  0  0
    1.2840   17.7739   20.6438 C   0  0  0  0  0  0
    2.3630   17.5302   18.2665 C   0  0  0  0  0  0
    2.9734   18.8379   17.7290 C   0  0  0  0  0  0
    4.2350   19.0312   18.2002 O   0  0  0  0  0  0
    2.1039   16.4912   17.0838 C   0  0  0  0  0  0
    4.0166   17.2175   15.4218 C   0  0  0  0  0  0
    4.4584   17.6116   14.0852 C   0  0  0  0  0  0
    3.4696   17.6904   13.0230 C   0  0  0  0  0  0
    2.0949   17.3858   13.2813 C   0  0  0  0  0  0
    1.6708   16.9992   14.6024 C   0  0  0  0  0  0
    2.6124   16.9044   15.6936 C   0  0  0  0  0  0
    5.8622   17.9254   13.8080 C   0  0  0  0  0  0
    6.8560   17.3821   14.5170 N   0  0  0  0  0  0
    6.1586   18.7779   12.8108 N   0  0  0  0  0  0
    2.4041   19.5813   17.0075 O   0  0  0  0  0  0
   -1.5587   18.7222   18.6618 O   0  0  0  0  0  0
    4.7822   20.3358   18.4073 C   0  0  0  0  0  0
   -2.5992   29.3291   16.9691 O   0  0  0  0  0  0
    1.3491   19.9013   18.7350 H   0  0  0  0  0  0
    6.6531   16.7566   15.2496 H   0  0  0  0  0  0
    5.4361   19.1853   12.2805 H   0  0  0  0  0  0
    7.0980   18.9944   12.6111 H   0  0  0  0  0  0
   -1.8952   29.7277   16.4340 H   0  0  0  0  0  0
  1  2  1  0  0  0
  1  6  2  0  0  0
  2  3  1  0  0  0
  2 11  1  0  0  0
  3  4  2  0  0  0
  4  5  1  0  0  0
  5  6  1  0  0  0
  5 33  1  0  0  0
  7  8  2  0  0  0
  7 12  1  0  0  0
  8  9  1  0  0  0
  8 13  1  0  0  0
  9 10  2  0  0  0
 10 11  1  0  0  0
 11 12  2  0  0  0
 13 14  1  0  0  0
 13 31  2  0  0  0
 14 15  1  0  0  0
 14 34  1  0  0  0
 15 16  1  0  0  0
 15 17  1  0  0  0
 17 18  1  0  0  0
 17 20  1  0  0  0
 18 19  1  0  0  0
 18 30  2  0  0  0
 19 32  1  0  0  0
 20 26  1  0  0  0
 21 22  2  0  0  0
 21 26  1  0  0  0
 22 23  1  0  0  0
 22 27  1  0  0  0
 23 24  2  0  0  0
 24 25  1  0  0  0
 25 26  2  0  0  0
 27 28  2  0  0  0
 27 29  1  0  0  0
 28 35  1  0  0  0
 29 36  1  0  0  0
 29 37  1  0  0  0
 33 38  1  0  0  0
M  END
>  <CHROM.0>
-149.57648927,88.23127693,-125.61136861,-27.25590324,-60.66992230,-175.52987725
0.41913053

>  <CHROM.1>
115.55746445,-75.38291431,-3.62732405,-98.71581154,16.51963110,118.43228212
129.65659834,-149.83108407,58.19688945,27.71609213,1.10755201,20.81527878
16.97844457,-2.49407474,-0.78626784,2.62424133

>  <FORMUL>
      FXV    C25 H27 N4 O4 1+

>  <HET>
 FXV  A 401      33

>  <HETNAM>
     FXV METHYL-3-(4'-N-OXOPYRIDYLPHENOYL)-3-METHYL-2-(M-AMIDINO
   2 FXV BENZYL)-PROPIONATE

>  <HETSYN>
     FXV FXV673

>  <Name>
FXV.pdb

>  <RI>
0

>  <Rbt.Current_Directory>
/home/malgorzata/Desktop/rDOCK_IFD/Wyniki/8_factor_Xa2

>  <Rbt.Executable>
rbdock ($Id: //depot/dev/client3/rdock/2013.1/src/exe/rbdock.cxx#4 $)

>  <Rbt.Library>
libRbt.so (2013.1, Build901 2013/11/27)

>  <Rbt.Parameter_File>
/home/malgorzata/Desktop/rDock_2013.1_src/data/scripts/soft_docking.prm

>  <Rbt.Receptor>
cavity.prm

>  <SCORE>
-27.8203

>  <SCORE.INTER>
-30.002

>  <SCORE.INTER.CONST>
1

>  <SCORE.INTER.POLAR>
-1.15051

>  <SCORE.INTER.REPUL>
0.956099

>  <SCORE.INTER.ROT>
9

>  <SCORE.INTER.VDW>
-45.2708

>  <SCORE.INTER.norm>
-0.909152

>  <SCORE.INTRA>
3.10396

>  <SCORE.INTRA.DIHEDRAL>
19.5443

>  <SCORE.INTRA.DIHEDRAL.0>
8.37942

>  <SCORE.INTRA.POLAR>
0

>  <SCORE.INTRA.POLAR.0>
0

>  <SCORE.INTRA.REPUL>
0

>  <SCORE.INTRA.REPUL.0>
0

>  <SCORE.INTRA.VDW>
-0.804893

>  <SCORE.INTRA.VDW.0>
-0.0658046

>  <SCORE.INTRA.norm>
0.0940594

>  <SCORE.RESTR>
1.67902

>  <SCORE.RESTR.CAVITY>
0.335803

>  <SCORE.RESTR.norm>
0.0508793

>  <SCORE.SYSTEM>
-2.6013

>  <SCORE.SYSTEM.CONST>
0

>  <SCORE.SYSTEM.DIHEDRAL>
10.1463

>  <SCORE.SYSTEM.POLAR>
-1.29805

>  <SCORE.SYSTEM.VDW>
-3.26108

>  <SCORE.SYSTEM.norm>
-0.0788272

>  <SCORE.heavy>
33

>  <SCORE.norm>
-0.843041

$$$$
FXV.pdb
  rDOCK(R)          3D
libRbt.so/2013.1/901 2013/11/27
 38 40  0  0  0  0  0  0  0  0999 V2000
   -1.4972   26.2694   16.9505 C   0  0  0  0  0  0
   -2.0207   25.1499   17.6784 C   0  0  0  0  0  0
   -3.3555   25.2576   18.2140 C   0  0  0  0  0  0
   -4.1179   26.4556   18.0160 C   0  0  0  0  0  0
   -3.6050   27.5212   17.3183 N   0  0  0  0  0  0
   -2.3174   27.4266   16.7962 C   0  0  0  0  0  0
   -0.6222   21.8627   19.2103 C   0  0  0  0  0  0
    0.3612   21.4649   18.2055 C   0  0  0  0  0  0
    0.5327   22.3123   17.0521 C   0  0  0  0  0  0
   -0.2311   23.5062   16.8853 C   0  0  0  0  0  0
   -1.2031   23.9070   17.8613 C   0  0  0  0  0  0
   -1.3775   23.0674   19.0154 C   0  0  0  0  0  0
    1.1664   20.2516   18.2936 C   0  0  0  0  0  0
    1.5871   19.7700   17.1078 N   0  0  0  0  0  0
    2.4288   18.6071   16.9818 C   0  0  0  0  0  0
    3.8960   19.0867   17.0242 C   0  0  0  0  0  0
    2.0297   17.8476   15.6616 C   0  0  0  0  0  0
    0.9703   16.7769   15.9822 C   0  0  0  0  0  0
    0.9278   15.8129   15.0230 O   0  0  0  0  0  0
    3.2705   17.2107   14.8867 C   0  0  0  0  0  0
    3.6085   18.4286   12.5736 C   0  0  0  0  0  0
    4.3712   19.3271   11.7087 C   0  0  0  0  0  0
    5.5757   19.9435   12.2389 C   0  0  0  0  0  0
    6.0025   19.6777   13.5792 C   0  0  0  0  0  0
    5.2437   18.7901   14.4223 C   0  0  0  0  0  0
    4.0387   18.1520   13.9454 C   0  0  0  0  0  0
    3.9447   19.6076   10.3356 C   0  0  0  0  0  0
    4.7873   20.1080    9.4273 N   0  0  0  0  0  0
    2.6738   19.3496    9.9786 N   0  0  0  0  0  0
    0.2761   16.8046   16.9385 O   0  0  0  0  0  0
    1.4606   19.7146   19.3782 O   0  0  0  0  0  0
    0.4661   16.0752   13.6955 C   0  0  0  0  0  0
   -4.3277   28.6610   17.1298 O   0  0  0  0  0  0
    1.3057   20.2353   16.2870 H   0  0  0  0  0  0
    5.7202   20.3014    9.6752 H   0  0  0  0  0  0
    2.0425   18.9808   10.6378 H   0  0  0  0  0  0
    2.3749   19.5296    9.0579 H   0  0  0  0  0  0
   -5.2584   28.4325   16.9795 H   0  0  0  0  0  0
  1  2  1  0  0  0
  1  6  2  0  0  0
  2  3  1  0  0  0
  2 11  1  0  0  0
  3  4  2  0  0  0
  4  5  1  0  0  0
  5  6  1  0  0  0
  5 33  1  0  0  0
  7  8  2  0  0  0
  7 12  1  0  0  0
  8  9  1  0  0  0
  8 13  1  0  0  0
  9 10  2  0  0  0
 10 11  1  0  0  0
 11 12  2  0  0  0
 13 14  1  0  0  0
 13 31  2  0  0  0
 14 15  1  0  0  0
 14 34  1  0  0  0
 15 16  1  0  0  0
 15 17  1  0  0  0
 17 18  1  0  0  0
 17 20  1  0  0  0
 18 19  1  0  0  0
 18 30  2  0  0  0
 19 32  1  0  0  0
 20 26  1  0  0  0
 21 22  2  0  0  0
 21 26  1  0  0  0
 22 23  1  0  0  0
 22 27  1  0  0  0
 23 24  2  0  0  0
 24 25  1  0  0  0
 25 26  2  0  0  0
 27 28  2  0  0  0
 27 29  1  0  0  0
 28 35  1  0  0  0
 29 36  1  0  0  0
 29 37  1  0  0  0
 33 38  1  0  0  0
M  END
>  <CHROM.0>
61.76735089,5.08694173,-110.74962295,40.96813528,-60.66992230,144.78573034
-89.92747058

>  <CHROM.1>
-29.72364231,-37.74515975,154.35841709,-89.71513331,-92.28062152,-158.93276658
-83.95615125,-67.94943926,-83.24695997,-161.23556227,1.02541698,21.00421895
15.72649733,-2.85847441,-0.93369946,2.44746998

>  <FORMUL>
      FXV    C25 H27 N4 O4 1+

>  <HET>
 FXV  A 401      33

>  <HETNAM>
     FXV METHYL-3-(4'-N-OXOPYRIDYLPHENOYL)-3-METHYL-2-(M-AMIDINO
   2 FXV BENZYL)-PROPIONATE

>  <HETSYN>
     FXV FXV673

>  <Name>
FXV.pdb

>  <RI>
0

>  <Rbt.Current_Directory>
/home/malgorzata/Desktop/rDOCK_IFD/Wyniki/8_factor_Xa2

>  <Rbt.Executable>
rbdock ($Id: //depot/dev/client3/rdock/2013.1/src/exe/rbdock.cxx#4 $)

>  <Rbt.Library>
libRbt.so (2013.1, Build901 2013/11/27)

>  <Rbt.Parameter_File>
/home/malgorzata/Desktop/rDock_2013.1_src/data/scripts/soft_docking.prm

>  <Rbt.Receptor>
cavity.prm

>  <SCORE>
-43.6247

>  <SCORE.INTER>
-48.4769

>  <SCORE.INTER.CONST>
1

>  <SCORE.INTER.POLAR>
-2.8369

>  <SCORE.INTER.REPUL>
0

>  <SCORE.INTER.ROT>
9

>  <SCORE.INTER.VDW>
-53.2314

>  <SCORE.INTER.norm>
-1.469

>  <SCORE.INTRA>
8.68368

>  <SCORE.INTRA.DIHEDRAL>
26.01

>  <SCORE.INTRA.DIHEDRAL.0>
8.37942

>  <SCORE.INTRA.POLAR>
0

>  <SCORE.INTRA.POLAR.0>
0

>  <SCORE.INTRA.REPUL>
0

>  <SCORE.INTRA.REPUL.0>
0

>  <SCORE.INTRA.VDW>
3.48168

>  <SCORE.INTRA.VDW.0>
-0.0658046

>  <SCORE.INTRA.norm>
0.263142

>  <SCORE.RESTR>
1.92608

>  <SCORE.RESTR.CAVITY>
0.385215

>  <SCORE.RESTR.norm>
0.0583659

>  <SCORE.SYSTEM>
-5.75754

>  <SCORE.SYSTEM.CONST>
0

>  <SCORE.SYSTEM.DIHEDRAL>
4.4704

>  <SCORE.SYSTEM.POLAR>
-1.29805

>  <SCORE.SYSTEM.VDW>
-3.57939

>  <SCORE.SYSTEM.norm>
-0.174471

>  <SCORE.heavy>
33

>  <SCORE.norm>
-1.32196

$$$$
