FXV.pdb
  rDOCK(R)          3D
libRbt.so/2013.1/901 2013/11/27
 38 40  0  0  0  0  0  0  0  0999 V2000
   -1.4471   25.5785   18.2029 C   0  0  0  0  0  0
   -2.4221   24.8809   17.4155 C   0  0  0  0  0  0
   -3.4900   25.6508   16.8266 C   0  0  0  0  0  0
   -3.5585   27.0675   17.0356 C   0  0  0  0  0  0
   -2.6196   27.7238   17.7928 N   0  0  0  0  0  0
   -1.5837   26.9895   18.3648 C   0  0  0  0  0  0
   -2.7034   21.3731   15.7651 C   0  0  0  0  0  0
   -2.0883   20.5204   16.7797 C   0  0  0  0  0  0
   -1.6072   21.1429   17.9875 C   0  0  0  0  0  0
   -1.7215   22.5501   18.1962 C   0  0  0  0  0  0
   -2.3190   23.4002   17.2072 C   0  0  0  0  0  0
   -2.8033   22.7853   16.0010 C   0  0  0  0  0  0
   -1.9176   19.0790   16.6337 C   0  0  0  0  0  0
   -1.2583   18.7019   15.5208 N   0  0  0  0  0  0
   -0.9493   17.3283   15.2136 C   0  0  0  0  0  0
    0.5118   17.2791   14.7164 C   0  0  0  0  0  0
   -2.0090   16.8028   14.1744 C   0  0  0  0  0  0
   -3.4036   16.7778   14.8271 C   0  0  0  0  0  0
   -4.3890   16.9642   13.9077 O   0  0  0  0  0  0
   -1.6447   15.3812   13.5485 C   0  0  0  0  0  0
   -1.9705   13.5675   15.4332 C   0  0  0  0  0  0
   -2.6789   12.4090   15.9749 C   0  0  0  0  0  0
   -3.7882   11.8570   15.2155 C   0  0  0  0  0  0
   -4.1788   12.4379   13.9668 C   0  0  0  0  0  0
   -3.4732   13.5788   13.4423 C   0  0  0  0  0  0
   -2.3642   14.1669   14.1569 C   0  0  0  0  0  0
   -2.2892   11.8058   17.2517 C   0  0  0  0  0  0
   -2.4372   10.4985   17.4845 N   0  0  0  0  0  0
   -1.7639   12.5871   18.2123 N   0  0  0  0  0  0
   -3.5847   16.6278   15.9855 O   0  0  0  0  0  0
   -2.3284   18.2619   17.4792 O   0  0  0  0  0  0
   -4.5917   18.2160   13.2474 C   0  0  0  0  0  0
   -2.6834   29.0701   17.9932 O   0  0  0  0  0  0
   -0.9738   19.3989   14.8864 H   0  0  0  0  0  0
   -2.8203    9.9151   16.7901 H   0  0  0  0  0  0
   -1.6493   13.5521   18.0540 H   0  0  0  0  0  0
   -1.4940   12.1941   19.0737 H   0  0  0  0  0  0
   -3.2541   29.2569   18.7549 H   0  0  0  0  0  0
  1  2  1  0  0  0
  1  6  2  0  0  0
  2  3  1  0  0  0
  2 11  1  0  0  0
  3  4  2  0  0  0
  4  5  1  0  0  0
  5  6  1  0  0  0
  5 33  1  0  0  0
  7  8  2  0  0  0
  7 12  1  0  0  0
  8  9  1  0  0  0
  8 13  1  0  0  0
  9 10  2  0  0  0
 10 11  1  0  0  0
 11 12  2  0  0  0
 13 14  1  0  0  0
 13 31  2  0  0  0
 14 15  1  0  0  0
 14 34  1  0  0  0
 15 16  1  0  0  0
 15 17  1  0  0  0
 17 18  1  0  0  0
 17 20  1  0  0  0
 18 19  1  0  0  0
 18 30  2  0  0  0
 19 32  1  0  0  0
 20 26  1  0  0  0
 21 22  2  0  0  0
 21 26  1  0  0  0
 22 23  1  0  0  0
 22 27  1  0  0  0
 23 24  2  0  0  0
 24 25  1  0  0  0
 25 26  2  0  0  0
 27 28  2  0  0  0
 27 29  1  0  0  0
 28 35  1  0  0  0
 29 36  1  0  0  0
 29 37  1  0  0  0
 33 38  1  0  0  0
M  END
>  <CHROM.0>
-93.88404079,24.36651563,67.29541699,-46.90375881,-60.66992230,133.25425060
-165.51704569

>  <CHROM.1>
29.89095403,86.36429903,54.75041459,-135.86861267,-65.24032679,150.75891634
99.79087453,-69.29147206,-78.08919461,-148.60410283,-2.47794558,18.89406276
16.12653582,-1.53083147,1.12343401,-3.01417282

>  <FORMUL>
      FXV    C25 H27 N4 O4 1+

>  <HET>
 FXV  A 401      33

>  <HETNAM>
     FXV METHYL-3-(4'-N-OXOPYRIDYLPHENOYL)-3-METHYL-2-(M-AMIDINO
   2 FXV BENZYL)-PROPIONATE

>  <HETSYN>
     FXV FXV673

>  <Name>
FXV.pdb

>  <RI>
0

>  <Rbt.Current_Directory>
/home/malgorzata/Desktop/rDOCK_IFD/Wyniki/8_factor_Xa2

>  <Rbt.Executable>
rbdock ($Id: //depot/dev/client3/rdock/2013.1/src/exe/rbdock.cxx#4 $)

>  <Rbt.Library>
libRbt.so (2013.1, Build901 2013/11/27)

>  <Rbt.Parameter_File>
/home/malgorzata/Desktop/rDock_2013.1_src/data/scripts/soft_docking.prm

>  <Rbt.Receptor>
cavity.prm

>  <SCORE>
-19.3753

>  <SCORE.INTER>
-19.2409

>  <SCORE.INTER.CONST>
1

>  <SCORE.INTER.POLAR>
-0.874726

>  <SCORE.INTER.REPUL>
0

>  <SCORE.INTER.ROT>
9

>  <SCORE.INTER.VDW>
-30.6668

>  <SCORE.INTER.norm>
-0.583056

>  <SCORE.INTRA>
4.37501

>  <SCORE.INTRA.DIHEDRAL>
36.5

>  <SCORE.INTRA.DIHEDRAL.0>
8.37942

>  <SCORE.INTRA.POLAR>
0

>  <SCORE.INTRA.POLAR.0>
0

>  <SCORE.INTRA.REPUL>
0

>  <SCORE.INTRA.REPUL.0>
0

>  <SCORE.INTRA.VDW>
-2.92498

>  <SCORE.INTRA.VDW.0>
-0.0658046

>  <SCORE.INTRA.norm>
0.132576

>  <SCORE.RESTR>
0

>  <SCORE.RESTR.CAVITY>
0

>  <SCORE.RESTR.norm>
0

>  <SCORE.SYSTEM>
-4.50945

>  <SCORE.SYSTEM.CONST>
0

>  <SCORE.SYSTEM.DIHEDRAL>
5.35298

>  <SCORE.SYSTEM.POLAR>
-1.29805

>  <SCORE.SYSTEM.VDW>
-2.77259

>  <SCORE.SYSTEM.norm>
-0.13665

>  <SCORE.heavy>
33

>  <SCORE.norm>
-0.58713

$$$$
FXV.pdb
  rDOCK(R)          3D
libRbt.so/2013.1/901 2013/11/27
 38 40  0  0  0  0  0  0  0  0999 V2000
    6.5304   20.6868   10.8235 C   0  0  0  0  0  0
    5.8524   20.7926   12.0830 C   0  0  0  0  0  0
    6.1981   21.8962   12.9448 C   0  0  0  0  0  0
    7.1926   22.8454   12.5380 C   0  0  0  0  0  0
    7.8357   22.7324   11.3301 N   0  0  0  0  0  0
    7.5081   21.6710   10.4902 C   0  0  0  0  0  0
    2.5804   18.6947   12.0725 C   0  0  0  0  0  0
    2.7926   17.8129   13.2181 C   0  0  0  0  0  0
    4.0181   17.9532   13.9637 C   0  0  0  0  0  0
    5.0032   18.9204   13.6018 C   0  0  0  0  0  0
    4.8105   19.7898   12.4771 C   0  0  0  0  0  0
    3.5890   19.6567   11.7304 C   0  0  0  0  0  0
    1.8442   16.7879   13.6400 C   0  0  0  0  0  0
    0.5806   17.2257   13.8037 N   0  0  0  0  0  0
   -0.5123   16.3626   14.1741 C   0  0  0  0  0  0
   -1.6676   16.6214   13.1828 C   0  0  0  0  0  0
   -0.8731   16.6395   15.6815 C   0  0  0  0  0  0
   -1.7287   15.4818   16.2285 C   0  0  0  0  0  0
   -2.3068   15.8058   17.4167 O   0  0  0  0  0  0
   -1.5897   18.0443   15.9229 C   0  0  0  0  0  0
   -1.1473   20.5199   16.7128 C   0  0  0  0  0  0
   -0.3338   21.4999   17.4304 C   0  0  0  0  0  0
    0.8706   21.0424   18.1028 C   0  0  0  0  0  0
    1.2486   19.6623   18.0644 C   0  0  0  0  0  0
    0.4399   18.7055   17.3536 C   0  0  0  0  0  0
   -0.7671   19.1067   16.6692 C   0  0  0  0  0  0
   -0.7101   22.9149   17.4775 C   0  0  0  0  0  0
   -0.5798   23.7115   16.4127 N   0  0  0  0  0  0
   -1.2046   23.4238   18.6201 N   0  0  0  0  0  0
   -1.8513   14.4403   15.6833 O   0  0  0  0  0  0
    2.1698   15.5984   13.8146 O   0  0  0  0  0  0
   -3.5071   15.1810   17.8785 C   0  0  0  0  0  0
    8.7816   23.6332   10.9419 O   0  0  0  0  0  0
    0.3947   18.1823   13.6633 H   0  0  0  0  0  0
   -0.2193   23.3520   15.5701 H   0  0  0  0  0  0
   -1.3058   22.8479   19.4122 H   0  0  0  0  0  0
   -1.4652   24.3722   18.6644 H   0  0  0  0  0  0
    9.6420   23.1901   10.8756 H   0  0  0  0  0  0
  1  2  1  0  0  0
  1  6  2  0  0  0
  2  3  1  0  0  0
  2 11  1  0  0  0
  3  4  2  0  0  0
  4  5  1  0  0  0
  5  6  1  0  0  0
  5 33  1  0  0  0
  7  8  2  0  0  0
  7 12  1  0  0  0
  8  9  1  0  0  0
  8 13  1  0  0  0
  9 10  2  0  0  0
 10 11  1  0  0  0
 11 12  2  0  0  0
 13 14  1  0  0  0
 13 31  2  0  0  0
 14 15  1  0  0  0
 14 34  1  0  0  0
 15 16  1  0  0  0
 15 17  1  0  0  0
 17 18  1  0  0  0
 17 20  1  0  0  0
 18 19  1  0  0  0
 18 30  2  0  0  0
 19 32  1  0  0  0
 20 26  1  0  0  0
 21 22  2  0  0  0
 21 26  1  0  0  0
 22 23  1  0  0  0
 22 27  1  0  0  0
 23 24  2  0  0  0
 24 25  1  0  0  0
 25 26  2  0  0  0
 27 28  2  0  0  0
 27 29  1  0  0  0
 28 35  1  0  0  0
 29 36  1  0  0  0
 29 37  1  0  0  0
 33 38  1  0  0  0
M  END
>  <CHROM.0>
-67.21137326,-147.55277776,-16.12446738,34.50481976,-60.66992230,0.25767915
-58.90395080

>  <CHROM.1>
115.43449978,114.95094420,-51.64126759,-130.00986230,-163.50500819,-166.54542535
-110.37314671,155.16041091,166.05834303,-73.16168363,1.80802477,19.24547589
14.63204763,-0.18203153,-0.64258940,-2.71700855

>  <FORMUL>
      FXV    C25 H27 N4 O4 1+

>  <HET>
 FXV  A 401      33

>  <HETNAM>
     FXV METHYL-3-(4'-N-OXOPYRIDYLPHENOYL)-3-METHYL-2-(M-AMIDINO
   2 FXV BENZYL)-PROPIONATE

>  <HETSYN>
     FXV FXV673

>  <Name>
FXV.pdb

>  <RI>
0

>  <Rbt.Current_Directory>
/home/malgorzata/Desktop/rDOCK_IFD/Wyniki/8_factor_Xa2

>  <Rbt.Executable>
rbdock ($Id: //depot/dev/client3/rdock/2013.1/src/exe/rbdock.cxx#4 $)

>  <Rbt.Library>
libRbt.so (2013.1, Build901 2013/11/27)

>  <Rbt.Parameter_File>
/home/malgorzata/Desktop/rDock_2013.1_src/data/scripts/soft_docking.prm

>  <Rbt.Receptor>
cavity.prm

>  <SCORE>
-27.2876

>  <SCORE.INTER>
-28.3623

>  <SCORE.INTER.CONST>
1

>  <SCORE.INTER.POLAR>
-1.38517

>  <SCORE.INTER.REPUL>
0

>  <SCORE.INTER.ROT>
9

>  <SCORE.INTER.VDW>
-38.0527

>  <SCORE.INTER.norm>
-0.859463

>  <SCORE.INTRA>
3.93033

>  <SCORE.INTRA.DIHEDRAL>
28.4371

>  <SCORE.INTRA.DIHEDRAL.0>
8.37942

>  <SCORE.INTRA.POLAR>
0

>  <SCORE.INTRA.POLAR.0>
0

>  <SCORE.INTRA.REPUL>
0

>  <SCORE.INTRA.REPUL.0>
0

>  <SCORE.INTRA.VDW>
-1.75709

>  <SCORE.INTRA.VDW.0>
-0.0658046

>  <SCORE.INTRA.norm>
0.119101

>  <SCORE.RESTR>
1.03844

>  <SCORE.RESTR.CAVITY>
1.03844

>  <SCORE.RESTR.norm>
0.0314679

>  <SCORE.SYSTEM>
-3.89406

>  <SCORE.SYSTEM.CONST>
0

>  <SCORE.SYSTEM.DIHEDRAL>
5.32676

>  <SCORE.SYSTEM.POLAR>
-1.29805

>  <SCORE.SYSTEM.REPUL>
0.0994959

>  <SCORE.SYSTEM.VDW>
-2.64157

>  <SCORE.SYSTEM.norm>
-0.118002

>  <SCORE.heavy>
33

>  <SCORE.norm>
-0.826896

$$$$
FXV.pdb
  rDOCK(R)          3D
libRbt.so/2013.1/901 2013/11/27
 38 40  0  0  0  0  0  0  0  0999 V2000
   -0.5102   26.2497   18.0236 C   0  0  0  0  0  0
   -1.3011   25.1289   18.4423 C   0  0  0  0  0  0
   -2.7169   25.3332   18.6265 C   0  0  0  0  0  0
   -3.2957   26.6244   18.3955 C   0  0  0  0  0  0
   -2.5275   27.6901   17.9961 N   0  0  0  0  0  0
   -1.1596   27.5028   17.8143 C   0  0  0  0  0  0
   -0.8289   21.4194   19.5025 C   0  0  0  0  0  0
    0.5449   21.1639   19.0754 C   0  0  0  0  0  0
    1.2735   22.2418   18.4549 C   0  0  0  0  0  0
    0.6800   23.5245   18.2570 C   0  0  0  0  0  0
   -0.6691   23.7886   18.6672 C   0  0  0  0  0  0
   -1.4007   22.7183   19.2891 C   0  0  0  0  0  0
    1.2153   19.8769   19.2249 C   0  0  0  0  0  0
    2.5070   19.9571   19.5995 N   0  0  0  0  0  0
    3.3316   18.8008   19.8431 C   0  0  0  0  0  0
    4.5153   19.2501   20.7272 C   0  0  0  0  0  0
    3.7512   18.1901   18.4539 C   0  0  0  0  0  0
    4.6215   16.9401   18.6812 C   0  0  0  0  0  0
    3.8619   15.8182   18.8050 O   0  0  0  0  0  0
    4.4835   19.2295   17.4901 C   0  0  0  0  0  0
    3.7564   17.9012   15.3326 C   0  0  0  0  0  0
    3.9988   17.4876   13.9515 C   0  0  0  0  0  0
    5.2012   17.9610   13.2866 C   0  0  0  0  0  0
    6.1248   18.8152   13.9696 C   0  0  0  0  0  0
    5.8762   19.2158   15.3306 C   0  0  0  0  0  0
    4.6964   18.7747   16.0375 C   0  0  0  0  0  0
    3.0611   16.6142   13.2416 C   0  0  0  0  0  0
    2.1539   15.8812   13.8935 N   0  0  0  0  0  0
    3.1111   16.5527   11.8990 N   0  0  0  0  0  0
    5.8012   16.9642   18.7509 O   0  0  0  0  0  0
    0.6362   18.7894   19.0423 O   0  0  0  0  0  0
    4.4201   14.5043   18.7246 C   0  0  0  0  0  0
   -3.0756   28.9183   17.7768 O   0  0  0  0  0  0
    2.9071   20.8496   19.7124 H   0  0  0  0  0  0
    2.1064   15.9168   14.8762 H   0  0  0  0  0  0
    3.7747   17.0875   11.4061 H   0  0  0  0  0  0
    2.4842   15.9729   11.4090 H   0  0  0  0  0  0
   -3.8715   29.0192   18.3221 H   0  0  0  0  0  0
  1  2  1  0  0  0
  1  6  2  0  0  0
  2  3  1  0  0  0
  2 11  1  0  0  0
  3  4  2  0  0  0
  4  5  1  0  0  0
  5  6  1  0  0  0
  5 33  1  0  0  0
  7  8  2  0  0  0
  7 12  1  0  0  0
  8  9  1  0  0  0
  8 13  1  0  0  0
  9 10  2  0  0  0
 10 11  1  0  0  0
 11 12  2  0  0  0
 13 14  1  0  0  0
 13 31  2  0  0  0
 14 15  1  0  0  0
 14 34  1  0  0  0
 15 16  1  0  0  0
 15 17  1  0  0  0
 17 18  1  0  0  0
 17 20  1  0  0  0
 18 19  1  0  0  0
 18 30  2  0  0  0
 19 32  1  0  0  0
 20 26  1  0  0  0
 21 22  2  0  0  0
 21 26  1  0  0  0
 22 23  1  0  0  0
 22 27  1  0  0  0
 23 24  2  0  0  0
 24 25  1  0  0  0
 25 26  2  0  0  0
 27 28  2  0  0  0
 27 29  1  0  0  0
 28 35  1  0  0  0
 29 36  1  0  0  0
 29 37  1  0  0  0
 33 38  1  0  0  0
M  END
>  <CHROM.0>
68.38049990,1.75416889,68.77235639,-150.06177709,-60.66992230,28.48168267
-91.09260843

>  <CHROM.1>
-10.81106309,27.21301829,-139.91291022,-159.29008861,-179.33058523,87.88131268
-169.61228991,165.76094574,32.96679754,-17.87254128,1.89079592,20.55859921
17.49023411,3.02794924,-0.98051558,1.67508165

>  <FORMUL>
      FXV    C25 H27 N4 O4 1+

>  <HET>
 FXV  A 401      33

>  <HETNAM>
     FXV METHYL-3-(4'-N-OXOPYRIDYLPHENOYL)-3-METHYL-2-(M-AMIDINO
   2 FXV BENZYL)-PROPIONATE

>  <HETSYN>
     FXV FXV673

>  <Name>
FXV.pdb

>  <RI>
0

>  <Rbt.Current_Directory>
/home/malgorzata/Desktop/rDOCK_IFD/Wyniki/8_factor_Xa2

>  <Rbt.Executable>
rbdock ($Id: //depot/dev/client3/rdock/2013.1/src/exe/rbdock.cxx#4 $)

>  <Rbt.Library>
libRbt.so (2013.1, Build901 2013/11/27)

>  <Rbt.Parameter_File>
/home/malgorzata/Desktop/rDock_2013.1_src/data/scripts/soft_docking.prm

>  <Rbt.Receptor>
cavity.prm

>  <SCORE>
-32.1763

>  <SCORE.INTER>
-29.4618

>  <SCORE.INTER.CONST>
1

>  <SCORE.INTER.POLAR>
-0.513743

>  <SCORE.INTER.REPUL>
0.0644007

>  <SCORE.INTER.ROT>
9

>  <SCORE.INTER.VDW>
-42.4371

>  <SCORE.INTER.norm>
-0.892783

>  <SCORE.INTRA>
1.0621

>  <SCORE.INTRA.DIHEDRAL>
5.90162

>  <SCORE.INTRA.DIHEDRAL.0>
8.37942

>  <SCORE.INTRA.POLAR>
0

>  <SCORE.INTRA.POLAR.0>
0

>  <SCORE.INTRA.REPUL>
0

>  <SCORE.INTRA.REPUL.0>
0

>  <SCORE.INTRA.VDW>
-0.118222

>  <SCORE.INTRA.VDW.0>
-0.0658046

>  <SCORE.INTRA.norm>
0.0321849

>  <SCORE.RESTR>
0.420306

>  <SCORE.RESTR.CAVITY>
0.420306

>  <SCORE.RESTR.norm>
0.0127366

>  <SCORE.SYSTEM>
-4.19687

>  <SCORE.SYSTEM.CONST>
0

>  <SCORE.SYSTEM.DIHEDRAL>
5.90608

>  <SCORE.SYSTEM.POLAR>
-1.29805

>  <SCORE.SYSTEM.VDW>
-2.73656

>  <SCORE.SYSTEM.norm>
-0.127178

>  <SCORE.heavy>
33

>  <SCORE.norm>
-0.975039

$$$$
FXV.pdb
  rDOCK(R)          3D
libRbt.so/2013.1/901 2013/11/27
 38 40  0  0  0  0  0  0  0  0999 V2000
   -2.3448   25.2732   16.4686 C   0  0  0  0  0  0
   -1.8279   24.3017   17.3885 C   0  0  0  0  0  0
   -1.5094   24.7404   18.7250 C   0  0  0  0  0  0
   -1.7083   26.1093   19.1018 C   0  0  0  0  0  0
   -2.2027   27.0303   18.2114 N   0  0  0  0  0  0
   -2.5144   26.6165   16.9188 C   0  0  0  0  0  0
   -0.1266   21.0109   16.2122 C   0  0  0  0  0  0
   -1.2591   20.0881   16.1834 C   0  0  0  0  0  0
   -2.5573   20.5967   16.5489 C   0  0  0  0  0  0
   -2.7426   21.9592   16.9311 C   0  0  0  0  0  0
   -1.6393   22.8754   16.9682 C   0  0  0  0  0  0
   -0.3419   22.3751   16.6024 C   0  0  0  0  0  0
   -1.1489   18.6789   15.8229 C   0  0  0  0  0  0
   -0.2007   18.4068   14.9053 N   0  0  0  0  0  0
    0.0957   17.0728   14.4480 C   0  0  0  0  0  0
    0.2248   16.1705   15.6944 C   0  0  0  0  0  0
    1.3879   17.1326   13.5504 C   0  0  0  0  0  0
    2.6303   16.8482   14.4148 C   0  0  0  0  0  0
    3.2623   17.9979   14.7751 O   0  0  0  0  0  0
    1.5503   18.5022   12.7484 C   0  0  0  0  0  0
    3.5649   19.9405   11.8424 C   0  0  0  0  0  0
    4.7952   20.0563   11.0613 C   0  0  0  0  0  0
    5.2969   18.8757   10.3784 C   0  0  0  0  0  0
    4.6020   17.6276   10.4721 C   0  0  0  0  0  0
    3.3903   17.5253   11.2440 C   0  0  0  0  0  0
    2.8488   18.6675   11.9429 C   0  0  0  0  0  0
    5.5156   21.3276   10.9580 C   0  0  0  0  0  0
    6.0721   21.7278    9.8111 N   0  0  0  0  0  0
    5.6149   22.1147   12.0442 N   0  0  0  0  0  0
    2.9897   15.7620   14.7120 O   0  0  0  0  0  0
   -1.8586   17.7936   16.3368 O   0  0  0  0  0  0
    4.6048   18.0105   15.2667 C   0  0  0  0  0  0
   -2.3917   28.3320   18.5674 O   0  0  0  0  0  0
    0.3151   19.1562   14.5287 H   0  0  0  0  0  0
    6.0069   21.1615    9.0084 H   0  0  0  0  0  0
    5.2096   21.8319   12.8957 H   0  0  0  0  0  0
    6.0929   22.9736   11.9878 H   0  0  0  0  0  0
   -1.6021   28.8474   18.3396 H   0  0  0  0  0  0
  1  2  1  0  0  0
  1  6  2  0  0  0
  2  3  1  0  0  0
  2 11  1  0  0  0
  3  4  2  0  0  0
  4  5  1  0  0  0
  5  6  1  0  0  0
  5 33  1  0  0  0
  7  8  2  0  0  0
  7 12  1  0  0  0
  8  9  1  0  0  0
  8 13  1  0  0  0
  9 10  2  0  0  0
 10 11  1  0  0  0
 11 12  2  0  0  0
 13 14  1  0  0  0
 13 31  2  0  0  0
 14 15  1  0  0  0
 14 34  1  0  0  0
 15 16  1  0  0  0
 15 17  1  0  0  0
 17 18  1  0  0  0
 17 20  1  0  0  0
 18 19  1  0  0  0
 18 30  2  0  0  0
 19 32  1  0  0  0
 20 26  1  0  0  0
 21 22  2  0  0  0
 21 26  1  0  0  0
 22 23  1  0  0  0
 22 27  1  0  0  0
 23 24  2  0  0  0
 24 25  1  0  0  0
 25 26  2  0  0  0
 27 28  2  0  0  0
 27 29  1  0  0  0
 28 35  1  0  0  0
 29 36  1  0  0  0
 29 37  1  0  0  0
 33 38  1  0  0  0
M  END
>  <CHROM.0>
-140.18724221,167.86617028,76.15942283,-161.46170372,-60.66992230,-47.79750042
147.36553171

>  <CHROM.1>
-80.17441824,92.97776553,-32.61386652,-47.54421683,93.41921632,-99.14332203
175.23578826,-163.21905169,-141.65332175,-140.35454182,0.99949582,20.65027822
14.79127993,-2.41266217,-0.70701934,-3.08268421

>  <FORMUL>
      FXV    C25 H27 N4 O4 1+

>  <HET>
 FXV  A 401      33

>  <HETNAM>
     FXV METHYL-3-(4'-N-OXOPYRIDYLPHENOYL)-3-METHYL-2-(M-AMIDINO
   2 FXV BENZYL)-PROPIONATE

>  <HETSYN>
     FXV FXV673

>  <Name>
FXV.pdb

>  <RI>
0

>  <Rbt.Current_Directory>
/home/malgorzata/Desktop/rDOCK_IFD/Wyniki/8_factor_Xa2

>  <Rbt.Executable>
rbdock ($Id: //depot/dev/client3/rdock/2013.1/src/exe/rbdock.cxx#4 $)

>  <Rbt.Library>
libRbt.so (2013.1, Build901 2013/11/27)

>  <Rbt.Parameter_File>
/home/malgorzata/Desktop/rDock_2013.1_src/data/scripts/soft_docking.prm

>  <Rbt.Receptor>
cavity.prm

>  <SCORE>
-39.235

>  <SCORE.INTER>
-42.9942

>  <SCORE.INTER.CONST>
1

>  <SCORE.INTER.POLAR>
-2.93731

>  <SCORE.INTER.REPUL>
0.289495

>  <SCORE.INTER.ROT>
9

>  <SCORE.INTER.VDW>
-48.8548

>  <SCORE.INTER.norm>
-1.30285

>  <SCORE.INTRA>
7.64508

>  <SCORE.INTRA.DIHEDRAL>
14.8714

>  <SCORE.INTRA.DIHEDRAL.0>
8.37942

>  <SCORE.INTRA.POLAR>
0

>  <SCORE.INTRA.POLAR.0>
0

>  <SCORE.INTRA.REPUL>
0

>  <SCORE.INTRA.REPUL.0>
0

>  <SCORE.INTRA.VDW>
4.67081

>  <SCORE.INTRA.VDW.0>
-0.0658046

>  <SCORE.INTRA.norm>
0.231669

>  <SCORE.RESTR>
0.38959

>  <SCORE.RESTR.CAVITY>
0.38959

>  <SCORE.RESTR.norm>
0.0118058

>  <SCORE.SYSTEM>
-4.27554

>  <SCORE.SYSTEM.CONST>
0

>  <SCORE.SYSTEM.DIHEDRAL>
5.61258

>  <SCORE.SYSTEM.POLAR>
-1.29805

>  <SCORE.SYSTEM.VDW>
-2.66848

>  <SCORE.SYSTEM.norm>
-0.129562

>  <SCORE.heavy>
33

>  <SCORE.norm>
-1.18894

$$$$
FXV.pdb
  rDOCK(R)          3D
libRbt.so/2013.1/901 2013/11/27
 38 40  0  0  0  0  0  0  0  0999 V2000
   -3.8075   25.6181   17.1120 C   0  0  0  0  0  0
   -2.7882   25.5907   18.1207 C   0  0  0  0  0  0
   -2.5930   26.7784   18.9154 C   0  0  0  0  0  0
   -3.4012   27.9403   18.6870 C   0  0  0  0  0  0
   -4.3732   27.9546   17.7172 N   0  0  0  0  0  0
   -4.5703   26.8124   16.9453 C   0  0  0  0  0  0
   -0.9528   22.6696   19.9112 C   0  0  0  0  0  0
   -0.3923   21.9360   18.7786 C   0  0  0  0  0  0
   -0.6375   22.4455   17.4528 C   0  0  0  0  0  0
   -1.4050   23.6298   17.2405 C   0  0  0  0  0  0
   -1.9650   24.3579   18.3424 C   0  0  0  0  0  0
   -1.7222   23.8564   19.6678 C   0  0  0  0  0  0
    0.3858   20.7092   18.9112 C   0  0  0  0  0  0
    1.2940   20.5125   17.9357 N   0  0  0  0  0  0
    2.1907   19.3848   17.9076 C   0  0  0  0  0  0
    3.6329   19.9347   17.9531 C   0  0  0  0  0  0
    1.8623   18.5226   16.6317 C   0  0  0  0  0  0
    2.4596   19.1991   15.3838 C   0  0  0  0  0  0
    3.8178   19.1204   15.3745 O   0  0  0  0  0  0
    0.3058   18.2326   16.4355 C   0  0  0  0  0  0
   -1.4262   16.9197   14.9440 C   0  0  0  0  0  0
   -1.7309   15.8667   13.9768 C   0  0  0  0  0  0
   -0.6426   15.0352   13.4908 C   0  0  0  0  0  0
    0.6974   15.2461   13.9481 C   0  0  0  0  0  0
    0.9860   16.2861   14.9018 C   0  0  0  0  0  0
   -0.0583   17.1413   15.4162 C   0  0  0  0  0  0
   -3.0979   15.6412   13.5008 C   0  0  0  0  0  0
   -3.3912   14.6522   12.6515 N   0  0  0  0  0  0
   -4.0839   16.4469   13.9340 N   0  0  0  0  0  0
    1.8114   19.7296   14.5498 O   0  0  0  0  0  0
    0.2390   19.9165   19.8607 O   0  0  0  0  0  0
    4.5569   18.7993   14.1935 C   0  0  0  0  0  0
   -5.1419   29.0582   17.4981 O   0  0  0  0  0  0
    1.3477   21.1715   17.2062 H   0  0  0  0  0  0
   -2.6791   14.0551   12.3266 H   0  0  0  0  0  0
   -3.8817   17.1795   14.5598 H   0  0  0  0  0  0
   -5.0078   16.3042   13.6252 H   0  0  0  0  0  0
   -6.0792   28.8100   17.5254 H   0  0  0  0  0  0
  1  2  1  0  0  0
  1  6  2  0  0  0
  2  3  1  0  0  0
  2 11  1  0  0  0
  3  4  2  0  0  0
  4  5  1  0  0  0
  5  6  1  0  0  0
  5 33  1  0  0  0
  7  8  2  0  0  0
  7 12  1  0  0  0
  8  9  1  0  0  0
  8 13  1  0  0  0
  9 10  2  0  0  0
 10 11  1  0  0  0
 11 12  2  0  0  0
 13 14  1  0  0  0
 13 31  2  0  0  0
 14 15  1  0  0  0
 14 34  1  0  0  0
 15 16  1  0  0  0
 15 17  1  0  0  0
 17 18  1  0  0  0
 17 20  1  0  0  0
 18 19  1  0  0  0
 18 30  2  0  0  0
 19 32  1  0  0  0
 20 26  1  0  0  0
 21 22  2  0  0  0
 21 26  1  0  0  0
 22 23  1  0  0  0
 22 27  1  0  0  0
 23 24  2  0  0  0
 24 25  1  0  0  0
 25 26  2  0  0  0
 27 28  2  0  0  0
 27 29  1  0  0  0
 28 35  1  0  0  0
 29 36  1  0  0  0
 29 37  1  0  0  0
 33 38  1  0  0  0
M  END
>  <CHROM.0>
-123.01392167,76.19513670,80.15203394,-93.13515010,-60.66992230,-163.50472102
-75.18878722

>  <CHROM.1>
45.30486030,-127.30939058,-151.10108218,-119.34321610,77.60025368,70.38991477
-166.25929245,136.99695638,-168.74481265,-177.70841985,-0.70259812,20.80044790
16.59263883,1.91345226,-0.32246038,0.46260728

>  <FORMUL>
      FXV    C25 H27 N4 O4 1+

>  <HET>
 FXV  A 401      33

>  <HETNAM>
     FXV METHYL-3-(4'-N-OXOPYRIDYLPHENOYL)-3-METHYL-2-(M-AMIDINO
   2 FXV BENZYL)-PROPIONATE

>  <HETSYN>
     FXV FXV673

>  <Name>
FXV.pdb

>  <RI>
0

>  <Rbt.Current_Directory>
/home/malgorzata/Desktop/rDOCK_IFD/Wyniki/8_factor_Xa2

>  <Rbt.Executable>
rbdock ($Id: //depot/dev/client3/rdock/2013.1/src/exe/rbdock.cxx#4 $)

>  <Rbt.Library>
libRbt.so (2013.1, Build901 2013/11/27)

>  <Rbt.Parameter_File>
/home/malgorzata/Desktop/rDock_2013.1_src/data/scripts/soft_docking.prm

>  <Rbt.Receptor>
cavity.prm

>  <SCORE>
-30.2488

>  <SCORE.INTER>
-31.5939

>  <SCORE.INTER.CONST>
1

>  <SCORE.INTER.POLAR>
-1.75529

>  <SCORE.INTER.REPUL>
0.0214022

>  <SCORE.INTER.ROT>
9

>  <SCORE.INTER.VDW>
-40.1329

>  <SCORE.INTER.norm>
-0.95739

>  <SCORE.INTRA>
3.6786

>  <SCORE.INTRA.DIHEDRAL>
13.4815

>  <SCORE.INTRA.DIHEDRAL.0>
8.37942

>  <SCORE.INTRA.POLAR>
0

>  <SCORE.INTRA.POLAR.0>
0

>  <SCORE.INTRA.REPUL>
0

>  <SCORE.INTRA.REPUL.0>
0

>  <SCORE.INTRA.VDW>
0.98231

>  <SCORE.INTRA.VDW.0>
-0.0658046

>  <SCORE.INTRA.norm>
0.111473

>  <SCORE.RESTR>
0.230662

>  <SCORE.RESTR.CAVITY>
0.230662

>  <SCORE.RESTR.norm>
0.00698974

>  <SCORE.SYSTEM>
-2.56418

>  <SCORE.SYSTEM.CONST>
0

>  <SCORE.SYSTEM.DIHEDRAL>
10.307

>  <SCORE.SYSTEM.POLAR>
-1.29805

>  <SCORE.SYSTEM.VDW>
-3.30434

>  <SCORE.SYSTEM.norm>
-0.0777025

>  <SCORE.heavy>
33

>  <SCORE.norm>
-0.91663

$$$$
FXV.pdb
  rDOCK(R)          3D
libRbt.so/2013.1/901 2013/11/27
 38 40  0  0  0  0  0  0  0  0999 V2000
    3.5101   20.0100   12.4121 C   0  0  0  0  0  0
    4.3136   19.6433   13.5422 C   0  0  0  0  0  0
    5.7455   19.6153   13.3716 C   0  0  0  0  0  0
    6.3277   19.9447   12.1036 C   0  0  0  0  0  0
    5.5476   20.2930   11.0286 N   0  0  0  0  0  0
    4.1639   20.3241   11.1834 C   0  0  0  0  0  0
    3.8055   19.1905   17.3690 C   0  0  0  0  0  0
    2.4286   18.7051   17.4277 C   0  0  0  0  0  0
    1.7162   18.5356   16.1862 C   0  0  0  0  0  0
    2.3271   18.8315   14.9308 C   0  0  0  0  0  0
    3.6766   19.3128   14.8581 C   0  0  0  0  0  0
    4.3938   19.4819   16.0928 C   0  0  0  0  0  0
    1.7281   18.3990   18.6701 C   0  0  0  0  0  0
    1.1187   17.1976   18.6894 N   0  0  0  0  0  0
    0.4111   16.6896   19.8374 C   0  0  0  0  0  0
    0.9988   15.3010   20.1704 C   0  0  0  0  0  0
   -1.1284   16.6833   19.5075 C   0  0  0  0  0  0
   -1.3350   16.3691   18.0141 C   0  0  0  0  0  0
   -1.8359   15.1174   17.8314 O   0  0  0  0  0  0
   -1.8789   18.0300   19.9180 C   0  0  0  0  0  0
   -0.3242   18.3566   22.0213 C   0  0  0  0  0  0
    0.3241   19.2266   23.0011 C   0  0  0  0  0  0
    0.1046   20.6602   22.9081 C   0  0  0  0  0  0
   -0.7257   21.2063   21.8778 C   0  0  0  0  0  0
   -1.3600   20.3395   20.9182 C   0  0  0  0  0  0
   -1.1747   18.9078   20.9648 C   0  0  0  0  0  0
    1.1764   18.6801   24.0598 C   0  0  0  0  0  0
    0.7767   17.6619   24.8271 N   0  0  0  0  0  0
    2.3946   19.2134   24.2610 N   0  0  0  0  0  0
   -1.0755   17.1232   17.1416 O   0  0  0  0  0  0
    1.7116   19.1752   19.6441 O   0  0  0  0  0  0
   -2.3392   14.6721   16.5695 C   0  0  0  0  0  0
    6.0990   20.6056    9.8224 O   0  0  0  0  0  0
    1.1586   16.6394   17.8794 H   0  0  0  0  0  0
   -0.1126   17.2622   24.6905 H   0  0  0  0  0  0
    2.7017   19.9640   23.7029 H   0  0  0  0  0  0
    2.9793   18.8532   24.9665 H   0  0  0  0  0  0
    7.0057   20.9242    9.9542 H   0  0  0  0  0  0
  1  2  1  0  0  0
  1  6  2  0  0  0
  2  3  1  0  0  0
  2 11  1  0  0  0
  3  4  2  0  0  0
  4  5  1  0  0  0
  5  6  1  0  0  0
  5 33  1  0  0  0
  7  8  2  0  0  0
  7 12  1  0  0  0
  8  9  1  0  0  0
  8 13  1  0  0  0
  9 10  2  0  0  0
 10 11  1  0  0  0
 11 12  2  0  0  0
 13 14  1  0  0  0
 13 31  2  0  0  0
 14 15  1  0  0  0
 14 34  1  0  0  0
 15 16  1  0  0  0
 15 17  1  0  0  0
 17 18  1  0  0  0
 17 20  1  0  0  0
 18 19  1  0  0  0
 18 30  2  0  0  0
 19 32  1  0  0  0
 20 26  1  0  0  0
 21 22  2  0  0  0
 21 26  1  0  0  0
 22 23  1  0  0  0
 22 27  1  0  0  0
 23 24  2  0  0  0
 24 25  1  0  0  0
 25 26  2  0  0  0
 27 28  2  0  0  0
 27 29  1  0  0  0
 28 35  1  0  0  0
 29 36  1  0  0  0
 29 37  1  0  0  0
 33 38  1  0  0  0
M  END
>  <CHROM.0>
156.25693966,-112.63605356,-54.89698376,-90.13147637,-60.66992230,164.21306426
-61.51883840

>  <CHROM.1>
25.21190263,-25.22232380,-130.57506820,-125.87608066,34.14134591,107.85706513
-20.14863676,168.54028020,-31.11576375,-49.22004956,1.55790768,18.54453837
17.89041864,0.95163265,-0.67015005,-1.81932710

>  <FORMUL>
      FXV    C25 H27 N4 O4 1+

>  <HET>
 FXV  A 401      33

>  <HETNAM>
     FXV METHYL-3-(4'-N-OXOPYRIDYLPHENOYL)-3-METHYL-2-(M-AMIDINO
   2 FXV BENZYL)-PROPIONATE

>  <HETSYN>
     FXV FXV673

>  <Name>
FXV.pdb

>  <RI>
0

>  <Rbt.Current_Directory>
/home/malgorzata/Desktop/rDOCK_IFD/Wyniki/8_factor_Xa2

>  <Rbt.Executable>
rbdock ($Id: //depot/dev/client3/rdock/2013.1/src/exe/rbdock.cxx#4 $)

>  <Rbt.Library>
libRbt.so (2013.1, Build901 2013/11/27)

>  <Rbt.Parameter_File>
/home/malgorzata/Desktop/rDock_2013.1_src/data/scripts/soft_docking.prm

>  <Rbt.Receptor>
cavity.prm

>  <SCORE>
-22.8905

>  <SCORE.INTER>
-21.4327

>  <SCORE.INTER.CONST>
1

>  <SCORE.INTER.POLAR>
-2.26682

>  <SCORE.INTER.REPUL>
0.0979922

>  <SCORE.INTER.ROT>
9

>  <SCORE.INTER.VDW>
-28.6155

>  <SCORE.INTER.norm>
-0.649476

>  <SCORE.INTRA>
1.58881

>  <SCORE.INTRA.DIHEDRAL>
20.4076

>  <SCORE.INTRA.DIHEDRAL.0>
8.37942

>  <SCORE.INTRA.POLAR>
0

>  <SCORE.INTRA.POLAR.0>
0

>  <SCORE.INTRA.REPUL>
0

>  <SCORE.INTRA.REPUL.0>
0

>  <SCORE.INTRA.VDW>
-2.49271

>  <SCORE.INTRA.VDW.0>
-0.0658046

>  <SCORE.INTRA.norm>
0.0481458

>  <SCORE.RESTR>
0

>  <SCORE.RESTR.CAVITY>
0

>  <SCORE.RESTR.norm>
0

>  <SCORE.SYSTEM>
-3.04662

>  <SCORE.SYSTEM.CONST>
0

>  <SCORE.SYSTEM.DIHEDRAL>
9.25516

>  <SCORE.SYSTEM.POLAR>
-1.29805

>  <SCORE.SYSTEM.VDW>
-3.26084

>  <SCORE.SYSTEM.norm>
-0.0923218

>  <SCORE.heavy>
33

>  <SCORE.norm>
-0.693652

$$$$
FXV.pdb
  rDOCK(R)          3D
libRbt.so/2013.1/901 2013/11/27
 38 40  0  0  0  0  0  0  0  0999 V2000
    5.3318   20.9878   13.8886 C   0  0  0  0  0  0
    4.9797   20.1206   12.8018 C   0  0  0  0  0  0
    5.6363   20.3264   11.5342 C   0  0  0  0  0  0
    6.6059   21.3720   11.3852 C   0  0  0  0  0  0
    6.9334   22.1967   12.4331 N   0  0  0  0  0  0
    6.3059   22.0054   13.6615 C   0  0  0  0  0  0
    2.7553   17.4250   14.5028 C   0  0  0  0  0  0
    1.9748   16.9305   13.3708 C   0  0  0  0  0  0
    2.2228   17.5068   12.0731 C   0  0  0  0  0  0
    3.1983   18.5318   11.8878 C   0  0  0  0  0  0
    3.9689   19.0302   12.9904 C   0  0  0  0  0  0
    3.7282   18.4579   14.2873 C   0  0  0  0  0  0
    0.9479   15.9003   13.4813 C   0  0  0  0  0  0
   -0.2391   16.3385   13.9441 N   0  0  0  0  0  0
   -1.3940   15.4882   14.0853 C   0  0  0  0  0  0
   -1.8162   15.0366   12.6703 C   0  0  0  0  0  0
   -2.5013   16.2837   14.8727 C   0  0  0  0  0  0
   -3.4899   15.2931   15.5154 C   0  0  0  0  0  0
   -4.1963   14.6105   14.5741 O   0  0  0  0  0  0
   -3.2697   17.3642   13.9852 C   0  0  0  0  0  0
   -4.5138   18.3217   16.1025 C   0  0  0  0  0  0
   -5.1841   19.4210   16.7951 C   0  0  0  0  0  0
   -5.3109   20.6970   16.1111 C   0  0  0  0  0  0
   -4.7881   20.8722   14.7900 C   0  0  0  0  0  0
   -4.1302   19.7819   14.1169 C   0  0  0  0  0  0
   -3.9766   18.4935   14.7515 C   0  0  0  0  0  0
   -5.7229   19.2544   18.1471 C   0  0  0  0  0  0
   -6.4477   20.2098   18.7363 N   0  0  0  0  0  0
   -5.4865   18.1083   18.8100 N   0  0  0  0  0  0
   -3.6208   15.1590   16.6824 O   0  0  0  0  0  0
    1.1440   14.7146   13.1542 O   0  0  0  0  0  0
   -5.0710   13.5302   14.9089 C   0  0  0  0  0  0
    7.8541   23.1915   12.2932 O   0  0  0  0  0  0
   -0.3215   17.2860   14.1984 H   0  0  0  0  0  0
   -6.6283   21.0535   18.2624 H   0  0  0  0  0  0
   -4.9540   17.3961   18.3876 H   0  0  0  0  0  0
   -5.8461   17.9815   19.7178 H   0  0  0  0  0  0
    7.4619   24.0357   12.5662 H   0  0  0  0  0  0
  1  2  1  0  0  0
  1  6  2  0  0  0
  2  3  1  0  0  0
  2 11  1  0  0  0
  3  4  2  0  0  0
  4  5  1  0  0  0
  5  6  1  0  0  0
  5 33  1  0  0  0
  7  8  2  0  0  0
  7 12  1  0  0  0
  8  9  1  0  0  0
  8 13  1  0  0  0
  9 10  2  0  0  0
 10 11  1  0  0  0
 11 12  2  0  0  0
 13 14  1  0  0  0
 13 31  2  0  0  0
 14 15  1  0  0  0
 14 34  1  0  0  0
 15 16  1  0  0  0
 15 17  1  0  0  0
 17 18  1  0  0  0
 17 20  1  0  0  0
 18 19  1  0  0  0
 18 30  2  0  0  0
 19 32  1  0  0  0
 20 26  1  0  0  0
 21 22  2  0  0  0
 21 26  1  0  0  0
 22 23  1  0  0  0
 22 27  1  0  0  0
 23 24  2  0  0  0
 24 25  1  0  0  0
 25 26  2  0  0  0
 27 28  2  0  0  0
 27 29  1  0  0  0
 28 35  1  0  0  0
 29 36  1  0  0  0
 29 37  1  0  0  0
 33 38  1  0  0  0
M  END
>  <CHROM.0>
-87.23738266,78.90949104,-44.00109146,22.44500980,-60.66992230,-135.18621866
-85.72748575

>  <CHROM.1>
153.78989014,125.50139071,79.52130051,-65.20645004,-158.03765290,-65.92907501
-158.90288041,172.96928003,-29.51349207,-173.46136542,-0.25910089,18.22842342
14.36314689,0.18413737,0.39485399,0.28442132

>  <FORMUL>
      FXV    C25 H27 N4 O4 1+

>  <HET>
 FXV  A 401      33

>  <HETNAM>
     FXV METHYL-3-(4'-N-OXOPYRIDYLPHENOYL)-3-METHYL-2-(M-AMIDINO
   2 FXV BENZYL)-PROPIONATE

>  <HETSYN>
     FXV FXV673

>  <Name>
FXV.pdb

>  <RI>
0

>  <Rbt.Current_Directory>
/home/malgorzata/Desktop/rDOCK_IFD/Wyniki/8_factor_Xa2

>  <Rbt.Executable>
rbdock ($Id: //depot/dev/client3/rdock/2013.1/src/exe/rbdock.cxx#4 $)

>  <Rbt.Library>
libRbt.so (2013.1, Build901 2013/11/27)

>  <Rbt.Parameter_File>
/home/malgorzata/Desktop/rDock_2013.1_src/data/scripts/soft_docking.prm

>  <Rbt.Receptor>
cavity.prm

>  <SCORE>
-28.1934

>  <SCORE.INTER>
-29.8468

>  <SCORE.INTER.CONST>
1

>  <SCORE.INTER.POLAR>
-0.484691

>  <SCORE.INTER.REPUL>
0.018045

>  <SCORE.INTER.ROT>
9

>  <SCORE.INTER.VDW>
-42.689

>  <SCORE.INTER.norm>
-0.904447

>  <SCORE.INTRA>
2.62105

>  <SCORE.INTRA.DIHEDRAL>
13.4749

>  <SCORE.INTRA.DIHEDRAL.0>
8.37942

>  <SCORE.INTRA.POLAR>
0

>  <SCORE.INTRA.POLAR.0>
0

>  <SCORE.INTRA.REPUL>
0

>  <SCORE.INTRA.REPUL.0>
0

>  <SCORE.INTRA.VDW>
-0.0739337

>  <SCORE.INTRA.VDW.0>
-0.0658046

>  <SCORE.INTRA.norm>
0.0794259

>  <SCORE.RESTR>
0.0974101

>  <SCORE.RESTR.CAVITY>
0.0974101

>  <SCORE.RESTR.norm>
0.00295182

>  <SCORE.SYSTEM>
-1.0651

>  <SCORE.SYSTEM.CONST>
0

>  <SCORE.SYSTEM.DIHEDRAL>
13.2148

>  <SCORE.SYSTEM.POLAR>
-1.29805

>  <SCORE.SYSTEM.REPUL>
0.00561914

>  <SCORE.SYSTEM.VDW>
-3.28723

>  <SCORE.SYSTEM.norm>
-0.0322757

>  <SCORE.heavy>
33

>  <SCORE.norm>
-0.854345

$$$$
FXV.pdb
  rDOCK(R)          3D
libRbt.so/2013.1/901 2013/11/27
 38 40  0  0  0  0  0  0  0  0999 V2000
    5.3764   20.0796   13.3112 C   0  0  0  0  0  0
    4.3165   19.2418   13.7928 C   0  0  0  0  0  0
    3.4170   18.6670   12.8229 C   0  0  0  0  0  0
    3.5923   18.9388   11.4262 C   0  0  0  0  0  0
    4.6103   19.7438   10.9777 N   0  0  0  0  0  0
    5.4850   20.3026   11.9061 C   0  0  0  0  0  0
    4.2034   19.7828   17.6401 C   0  0  0  0  0  0
    3.8326   18.4512   18.1138 C   0  0  0  0  0  0
    3.6410   17.4121   17.1334 C   0  0  0  0  0  0
    3.8044   17.6653   15.7384 C   0  0  0  0  0  0
    4.1639   18.9685   15.2586 C   0  0  0  0  0  0
    4.3590   20.0091   16.2315 C   0  0  0  0  0  0
    3.6284   18.1173   19.5191 C   0  0  0  0  0  0
    2.3416   18.1313   19.9179 N   0  0  0  0  0  0
    1.9255   17.7883   21.2543 C   0  0  0  0  0  0
    1.7536   16.2548   21.3100 C   0  0  0  0  0  0
    0.6208   18.6027   21.5912 C   0  0  0  0  0  0
    0.0252   18.0976   22.9184 C   0  0  0  0  0  0
    0.9980   17.7133   23.7885 O   0  0  0  0  0  0
   -0.4708   18.5772   20.4278 C   0  0  0  0  0  0
   -1.0507   21.0922   20.9629 C   0  0  0  0  0  0
   -1.9330   22.2502   20.8296 C   0  0  0  0  0  0
   -3.1409   22.1139   20.0331 C   0  0  0  0  0  0
   -3.4564   20.8734   19.3920 C   0  0  0  0  0  0
   -2.5802   19.7387   19.5308 C   0  0  0  0  0  0
   -1.3668   19.8204   20.3102 C   0  0  0  0  0  0
   -1.6210   23.5251   21.4803 C   0  0  0  0  0  0
   -2.1720   23.8706   22.6475 N   0  0  0  0  0  0
   -0.7536   24.3669   20.8904 N   0  0  0  0  0  0
   -1.1346   18.0421   23.1396 O   0  0  0  0  0  0
    4.5649   17.8217   20.2852 O   0  0  0  0  0  0
    0.7000   17.1648   25.0748 C   0  0  0  0  0  0
    4.7781   20.0038    9.6506 O   0  0  0  0  0  0
    1.6516   18.3884   19.2644 H   0  0  0  0  0  0
   -2.8084   23.2638   23.0901 H   0  0  0  0  0  0
   -0.3403   24.1248   20.0302 H   0  0  0  0  0  0
   -0.5319   25.2252   21.3187 H   0  0  0  0  0  0
    5.7217   20.1262    9.4620 H   0  0  0  0  0  0
  1  2  1  0  0  0
  1  6  2  0  0  0
  2  3  1  0  0  0
  2 11  1  0  0  0
  3  4  2  0  0  0
  4  5  1  0  0  0
  5  6  1  0  0  0
  5 33  1  0  0  0
  7  8  2  0  0  0
  7 12  1  0  0  0
  8  9  1  0  0  0
  8 13  1  0  0  0
  9 10  2  0  0  0
 10 11  1  0  0  0
 11 12  2  0  0  0
 13 14  1  0  0  0
 13 31  2  0  0  0
 14 15  1  0  0  0
 14 34  1  0  0  0
 15 16  1  0  0  0
 15 17  1  0  0  0
 17 18  1  0  0  0
 17 20  1  0  0  0
 18 19  1  0  0  0
 18 30  2  0  0  0
 19 32  1  0  0  0
 20 26  1  0  0  0
 21 22  2  0  0  0
 21 26  1  0  0  0
 22 23  1  0  0  0
 22 27  1  0  0  0
 23 24  2  0  0  0
 24 25  1  0  0  0
 25 26  2  0  0  0
 27 28  2  0  0  0
 27 29  1  0  0  0
 28 35  1  0  0  0
 29 36  1  0  0  0
 29 37  1  0  0  0
 33 38  1  0  0  0
M  END
>  <CHROM.0>
-160.37489844,2.27913297,53.49428583,41.03156185,-60.66992230,-98.87702242
-155.47572230

>  <CHROM.1>
-140.04032063,-148.34848341,97.38897635,-85.77777409,171.10120646,34.18061414
-149.45204929,-177.88637813,15.42707259,-97.96745655,1.59586597,19.47796344
18.51329984,0.82499299,0.74797734,-1.07712505

>  <FORMUL>
      FXV    C25 H27 N4 O4 1+

>  <HET>
 FXV  A 401      33

>  <HETNAM>
     FXV METHYL-3-(4'-N-OXOPYRIDYLPHENOYL)-3-METHYL-2-(M-AMIDINO
   2 FXV BENZYL)-PROPIONATE

>  <HETSYN>
     FXV FXV673

>  <Name>
FXV.pdb

>  <RI>
0

>  <Rbt.Current_Directory>
/home/malgorzata/Desktop/rDOCK_IFD/Wyniki/8_factor_Xa2

>  <Rbt.Executable>
rbdock ($Id: //depot/dev/client3/rdock/2013.1/src/exe/rbdock.cxx#4 $)

>  <Rbt.Library>
libRbt.so (2013.1, Build901 2013/11/27)

>  <Rbt.Parameter_File>
/home/malgorzata/Desktop/rDock_2013.1_src/data/scripts/soft_docking.prm

>  <Rbt.Receptor>
cavity.prm

>  <SCORE>
-26.4083

>  <SCORE.INTER>
-27.3798

>  <SCORE.INTER.CONST>
1

>  <SCORE.INTER.POLAR>
-1.9356

>  <SCORE.INTER.REPUL>
0.351908

>  <SCORE.INTER.ROT>
9

>  <SCORE.INTER.VDW>
-36.9582

>  <SCORE.INTER.norm>
-0.82969

>  <SCORE.INTRA>
5.12701

>  <SCORE.INTRA.DIHEDRAL>
25.1456

>  <SCORE.INTRA.DIHEDRAL.0>
8.37942

>  <SCORE.INTRA.POLAR>
0

>  <SCORE.INTRA.POLAR.0>
0

>  <SCORE.INTRA.REPUL>
0

>  <SCORE.INTRA.REPUL.0>
0

>  <SCORE.INTRA.VDW>
0.0978915

>  <SCORE.INTRA.VDW.0>
-0.0658046

>  <SCORE.INTRA.norm>
0.155364

>  <SCORE.RESTR>
0

>  <SCORE.RESTR.CAVITY>
0

>  <SCORE.RESTR.norm>
0

>  <SCORE.SYSTEM>
-4.1556

>  <SCORE.SYSTEM.CONST>
0

>  <SCORE.SYSTEM.DIHEDRAL>
7.5376

>  <SCORE.SYSTEM.POLAR>
-1.29805

>  <SCORE.SYSTEM.VDW>
-3.51104

>  <SCORE.SYSTEM.norm>
-0.125927

>  <SCORE.heavy>
33

>  <SCORE.norm>
-0.800253

$$$$
FXV.pdb
  rDOCK(R)          3D
libRbt.so/2013.1/901 2013/11/27
 38 40  0  0  0  0  0  0  0  0999 V2000
    5.5893   21.5780   13.7950 C   0  0  0  0  0  0
    5.3354   20.5451   12.8327 C   0  0  0  0  0  0
    6.1179   20.5443   11.6212 C   0  0  0  0  0  0
    7.1119   21.5543   11.4035 C   0  0  0  0  0  0
    7.3448   22.5388   12.3319 N   0  0  0  0  0  0
    6.5952   22.5476   13.5056 C   0  0  0  0  0  0
    2.7935   17.6642   12.2440 C   0  0  0  0  0  0
    2.2963   17.4292   13.5977 C   0  0  0  0  0  0
    2.8192   18.2469   14.6633 C   0  0  0  0  0  0
    3.7952   19.2582   14.4154 C   0  0  0  0  0  0
    4.2957   19.4972   13.0924 C   0  0  0  0  0  0
    3.7765   18.6866   12.0244 C   0  0  0  0  0  0
    1.3150   16.4040   13.9354 C   0  0  0  0  0  0
    0.8927   16.4311   15.2145 N   0  0  0  0  0  0
   -0.1054   15.5316   15.7355 C   0  0  0  0  0  0
   -1.4298   15.8275   14.9987 C   0  0  0  0  0  0
   -0.1732   15.7182   17.2974 C   0  0  0  0  0  0
   -1.1563   14.6958   17.8972 C   0  0  0  0  0  0
   -2.1219   14.3477   17.0042 O   0  0  0  0  0  0
   -0.5431   17.2022   17.7518 C   0  0  0  0  0  0
    1.9765   17.7764   18.2712 C   0  0  0  0  0  0
    3.0641   18.7476   18.3767 C   0  0  0  0  0  0
    2.7811   20.1411   18.0766 C   0  0  0  0  0  0
    1.4669   20.5510   17.6842 C   0  0  0  0  0  0
    0.4027   19.5856   17.5843 C   0  0  0  0  0  0
    0.6299   18.1882   17.8704 C   0  0  0  0  0  0
    4.4132   18.3406   18.7768 C   0  0  0  0  0  0
    4.7861   17.0576   18.7842 N   0  0  0  0  0  0
    5.3011   19.2831   19.1407 N   0  0  0  0  0  0
   -1.0808   14.2808   19.0014 O   0  0  0  0  0  0
    0.8846   15.5823   13.1042 O   0  0  0  0  0  0
   -3.3378   13.7097   17.4029 C   0  0  0  0  0  0
    8.2886   23.5000   12.1265 O   0  0  0  0  0  0
    1.2852   17.0980   15.8231 H   0  0  0  0  0  0
    4.1462   16.3576   18.5200 H   0  0  0  0  0  0
    5.0396   20.2323   19.1399 H   0  0  0  0  0  0
    6.2125   19.0239   19.4081 H   0  0  0  0  0  0
    8.9131   23.5038   12.8687 H   0  0  0  0  0  0
  1  2  1  0  0  0
  1  6  2  0  0  0
  2  3  1  0  0  0
  2 11  1  0  0  0
  3  4  2  0  0  0
  4  5  1  0  0  0
  5  6  1  0  0  0
  5 33  1  0  0  0
  7  8  2  0  0  0
  7 12  1  0  0  0
  8  9  1  0  0  0
  8 13  1  0  0  0
  9 10  2  0  0  0
 10 11  1  0  0  0
 11 12  2  0  0  0
 13 14  1  0  0  0
 13 31  2  0  0  0
 14 15  1  0  0  0
 14 34  1  0  0  0
 15 16  1  0  0  0
 15 17  1  0  0  0
 17 18  1  0  0  0
 17 20  1  0  0  0
 18 19  1  0  0  0
 18 30  2  0  0  0
 19 32  1  0  0  0
 20 26  1  0  0  0
 21 22  2  0  0  0
 21 26  1  0  0  0
 22 23  1  0  0  0
 22 27  1  0  0  0
 23 24  2  0  0  0
 24 25  1  0  0  0
 25 26  2  0  0  0
 27 28  2  0  0  0
 27 29  1  0  0  0
 28 35  1  0  0  0
 29 36  1  0  0  0
 29 37  1  0  0  0
 33 38  1  0  0  0
M  END
>  <CHROM.0>
-93.69878864,-140.88437373,-67.21123979,-59.14254302,-60.66992230,-177.72700351
-167.92661451

>  <CHROM.1>
-17.56634659,-124.48828326,-173.99297141,-64.31241893,-175.78997321,-27.96032300
-85.93803595,-162.91956887,-32.35117546,14.58943588,2.52334516,18.22898577
15.52295075,-0.38294790,0.72194020,1.49380131

>  <FORMUL>
      FXV    C25 H27 N4 O4 1+

>  <HET>
 FXV  A 401      33

>  <HETNAM>
     FXV METHYL-3-(4'-N-OXOPYRIDYLPHENOYL)-3-METHYL-2-(M-AMIDINO
   2 FXV BENZYL)-PROPIONATE

>  <HETSYN>
     FXV FXV673

>  <Name>
FXV.pdb

>  <RI>
0

>  <Rbt.Current_Directory>
/home/malgorzata/Desktop/rDOCK_IFD/Wyniki/8_factor_Xa2

>  <Rbt.Executable>
rbdock ($Id: //depot/dev/client3/rdock/2013.1/src/exe/rbdock.cxx#4 $)

>  <Rbt.Library>
libRbt.so (2013.1, Build901 2013/11/27)

>  <Rbt.Parameter_File>
/home/malgorzata/Desktop/rDock_2013.1_src/data/scripts/soft_docking.prm

>  <Rbt.Receptor>
cavity.prm

>  <SCORE>
-34.4544

>  <SCORE.INTER>
-34.0017

>  <SCORE.INTER.CONST>
1

>  <SCORE.INTER.POLAR>
-1.53322

>  <SCORE.INTER.REPUL>
0

>  <SCORE.INTER.ROT>
9

>  <SCORE.INTER.VDW>
-43.1887

>  <SCORE.INTER.norm>
-1.03035

>  <SCORE.INTRA>
5.42481

>  <SCORE.INTRA.DIHEDRAL>
4.70637

>  <SCORE.INTRA.DIHEDRAL.0>
8.37942

>  <SCORE.INTRA.POLAR>
0

>  <SCORE.INTRA.POLAR.0>
0

>  <SCORE.INTRA.REPUL>
0

>  <SCORE.INTRA.REPUL.0>
0

>  <SCORE.INTRA.VDW>
4.48354

>  <SCORE.INTRA.VDW.0>
-0.0658046

>  <SCORE.INTRA.norm>
0.164388

>  <SCORE.RESTR>
0.205013

>  <SCORE.RESTR.CAVITY>
0.205013

>  <SCORE.RESTR.norm>
0.00621253

>  <SCORE.SYSTEM>
-6.08251

>  <SCORE.SYSTEM.CONST>
0

>  <SCORE.SYSTEM.DIHEDRAL>
3.11269

>  <SCORE.SYSTEM.POLAR>
-1.29805

>  <SCORE.SYSTEM.VDW>
-3.2255

>  <SCORE.SYSTEM.norm>
-0.184318

>  <SCORE.heavy>
33

>  <SCORE.norm>
-1.04407

$$$$
FXV.pdb
  rDOCK(R)          3D
libRbt.so/2013.1/901 2013/11/27
 38 40  0  0  0  0  0  0  0  0999 V2000
   -3.7127   24.8354   17.9149 C   0  0  0  0  0  0
   -2.3704   24.6691   17.4375 C   0  0  0  0  0  0
   -1.6599   25.8448   16.9983 C   0  0  0  0  0  0
   -2.2938   27.1299   17.0432 C   0  0  0  0  0  0
   -3.5800   27.2760   17.5012 N   0  0  0  0  0  0
   -4.2743   26.1470   17.9287 C   0  0  0  0  0  0
    0.2539   21.8342   17.8668 C   0  0  0  0  0  0
   -0.4916   20.6693   17.3953 C   0  0  0  0  0  0
   -1.8445   20.8691   16.9401 C   0  0  0  0  0  0
   -2.4490   22.1618   16.9467 C   0  0  0  0  0  0
   -1.7309   23.3138   17.4108 C   0  0  0  0  0  0
   -0.3800   23.1219   17.8641 C   0  0  0  0  0  0
    0.0481   19.3142   17.3750 C   0  0  0  0  0  0
   -0.1684   18.6069   18.5011 N   0  0  0  0  0  0
    0.2462   17.2365   18.6646 C   0  0  0  0  0  0
   -0.7343   16.5675   19.6523 C   0  0  0  0  0  0
    1.7497   17.2263   19.1318 C   0  0  0  0  0  0
    1.8120   17.1951   20.6702 C   0  0  0  0  0  0
    1.3972   18.3726   21.2111 O   0  0  0  0  0  0
    2.6119   18.4354   18.5487 C   0  0  0  0  0  0
    4.5636   18.6224   16.7870 C   0  0  0  0  0  0
    5.9024   18.2560   16.3281 C   0  0  0  0  0  0
    6.6844   17.3348   17.1356 C   0  0  0  0  0  0
    6.1548   16.8017   18.3540 C   0  0  0  0  0  0
    4.8342   17.1691   18.7961 C   0  0  0  0  0  0
    4.0154   18.0813   18.0320 C   0  0  0  0  0  0
    6.4558   18.7951   15.0835 C   0  0  0  0  0  0
    7.0224   18.0048   14.1671 N   0  0  0  0  0  0
    6.3867   20.1187   14.8548 N   0  0  0  0  0  0
    2.1872   16.2640   21.2942 O   0  0  0  0  0  0
    0.6428   18.8396   16.3888 O   0  0  0  0  0  0
    1.4896   18.6452   22.6116 C   0  0  0  0  0  0
   -4.1845   28.4965   17.5441 O   0  0  0  0  0  0
   -0.6327   19.0480   19.2489 H   0  0  0  0  0  0
    7.0795   17.0342   14.3217 H   0  0  0  0  0  0
    5.9719   20.7124   15.5216 H   0  0  0  0  0  0
    6.7511   20.4939   14.0207 H   0  0  0  0  0  0
   -5.0020   28.4708   17.0226 H   0  0  0  0  0  0
  1  2  1  0  0  0
  1  6  2  0  0  0
  2  3  1  0  0  0
  2 11  1  0  0  0
  3  4  2  0  0  0
  4  5  1  0  0  0
  5  6  1  0  0  0
  5 33  1  0  0  0
  7  8  2  0  0  0
  7 12  1  0  0  0
  8  9  1  0  0  0
  8 13  1  0  0  0
  9 10  2  0  0  0
 10 11  1  0  0  0
 11 12  2  0  0  0
 13 14  1  0  0  0
 13 31  2  0  0  0
 14 15  1  0  0  0
 14 34  1  0  0  0
 15 16  1  0  0  0
 15 17  1  0  0  0
 17 18  1  0  0  0
 17 20  1  0  0  0
 18 19  1  0  0  0
 18 30  2  0  0  0
 19 32  1  0  0  0
 20 26  1  0  0  0
 21 22  2  0  0  0
 21 26  1  0  0  0
 22 23  1  0  0  0
 22 27  1  0  0  0
 23 24  2  0  0  0
 24 25  1  0  0  0
 25 26  2  0  0  0
 27 28  2  0  0  0
 27 29  1  0  0  0
 28 35  1  0  0  0
 29 36  1  0  0  0
 29 37  1  0  0  0
 33 38  1  0  0  0
M  END
>  <CHROM.0>
-118.00861649,-169.74551783,-146.91267844,57.53537689,-60.66992230,76.79324048
-42.54884667

>  <CHROM.1>
43.68113690,122.60644708,89.92973206,-151.17151090,92.48653312,-69.84939745
-136.51807199,-173.47823098,137.27864446,-131.19164686,1.03052457,20.49152588
17.92458118,2.48059510,0.53139048,-0.61535787

>  <FORMUL>
      FXV    C25 H27 N4 O4 1+

>  <HET>
 FXV  A 401      33

>  <HETNAM>
     FXV METHYL-3-(4'-N-OXOPYRIDYLPHENOYL)-3-METHYL-2-(M-AMIDINO
   2 FXV BENZYL)-PROPIONATE

>  <HETSYN>
     FXV FXV673

>  <Name>
FXV.pdb

>  <RI>
0

>  <Rbt.Current_Directory>
/home/malgorzata/Desktop/rDOCK_IFD/Wyniki/8_factor_Xa2

>  <Rbt.Executable>
rbdock ($Id: //depot/dev/client3/rdock/2013.1/src/exe/rbdock.cxx#4 $)

>  <Rbt.Library>
libRbt.so (2013.1, Build901 2013/11/27)

>  <Rbt.Parameter_File>
/home/malgorzata/Desktop/rDock_2013.1_src/data/scripts/soft_docking.prm

>  <Rbt.Receptor>
cavity.prm

>  <SCORE>
-26.6348

>  <SCORE.INTER>
-27.5273

>  <SCORE.INTER.CONST>
1

>  <SCORE.INTER.POLAR>
-0.531116

>  <SCORE.INTER.REPUL>
0.00176914

>  <SCORE.INTER.ROT>
9

>  <SCORE.INTER.VDW>
-40.1304

>  <SCORE.INTER.norm>
-0.834161

>  <SCORE.INTRA>
4.65903

>  <SCORE.INTRA.DIHEDRAL>
25.3159

>  <SCORE.INTRA.DIHEDRAL.0>
8.37942

>  <SCORE.INTRA.POLAR>
0

>  <SCORE.INTRA.POLAR.0>
0

>  <SCORE.INTRA.REPUL>
0

>  <SCORE.INTRA.REPUL.0>
0

>  <SCORE.INTRA.VDW>
-0.404156

>  <SCORE.INTRA.VDW.0>
-0.0658046

>  <SCORE.INTRA.norm>
0.141183

>  <SCORE.RESTR>
0.744681

>  <SCORE.RESTR.CAVITY>
0.744681

>  <SCORE.RESTR.norm>
0.0225661

>  <SCORE.SYSTEM>
-4.51119

>  <SCORE.SYSTEM.CONST>
0

>  <SCORE.SYSTEM.DIHEDRAL>
5.93714

>  <SCORE.SYSTEM.POLAR>
-1.29805

>  <SCORE.SYSTEM.REPUL>
0.0553575

>  <SCORE.SYSTEM.VDW>
-3.34319

>  <SCORE.SYSTEM.norm>
-0.136703

>  <SCORE.heavy>
33

>  <SCORE.norm>
-0.807115

$$$$
