@<TRIPOS>MOLECULE
pose6.pdb
 61 63 0 0 0
SMALL
GASTEIGER

@<TRIPOS>ATOM
      1  C1        -2.9980   25.3280   18.1680 C.2     1  LIG1       -0.0498
      2  C2        -3.1460   24.0890   18.8740 C.3     1  LIG1        0.0517
      3  C3        -4.3200   23.9170   19.6950 C.2     1  LIG1       -0.0498
      4  C4        -5.2940   24.9640   19.7900 C.2     1  LIG1        0.0304
      5  N1        -5.1400   26.1470   19.1090 N.4     1  LIG1       -0.2387
      6  C5        -4.0100   26.3230   18.3140 C.2     1  LIG1        0.0304
      7  C6        -0.4000   21.7870   17.3690 C.ar    1  LIG1       -0.0493
      8  C7        -0.0790   20.9280   18.5070 C.ar    1  LIG1        0.0367
      9  C8        -0.7980   21.1390   19.7390 C.ar    1  LIG1       -0.0493
     10  C9        -1.7940   22.1550   19.8550 C.ar    1  LIG1       -0.0567
     11  C10       -2.1150   23.0080   18.7480 C.ar    1  LIG1       -0.0321
     12  C11       -1.4040   22.8020   17.5160 C.ar    1  LIG1       -0.0567
     13  C12        0.9370   19.8820   18.4740 C.2     1  LIG1        0.2443
     14  N2         1.9460   20.1070   17.6100 N.am    1  LIG1       -0.3080
     15  C13        3.0690   19.2170   17.4580 C.3     1  LIG1        0.0338
     16  C14        4.3340   19.9830   17.9020 C.3     1  LIG1       -0.0458
     17  C15        3.1030   18.7120   15.9670 C.3     1  LIG1        0.0784
     18  C16        2.8710   17.1900   15.9330 C.2     1  LIG1        0.3120
     19  O1         2.1310   16.8210   14.8530 O.3     1  LIG1       -0.4677
     20  C17        4.4370   19.1050   15.1860 C.3     1  LIG1       -0.0130
     21  C18        5.3790   19.9550   12.8760 C.ar    1  LIG1       -0.0438
     22  C19        5.1610   20.4750   11.5270 C.ar    1  LIG1        0.0611
     23  C20        3.7950   20.6860   11.0770 C.ar    1  LIG1       -0.0470
     24  C21        2.6890   20.3880   11.9360 C.ar    1  LIG1       -0.0607
     25  C22        2.9160   19.8770   13.2640 C.ar    1  LIG1       -0.0585
     26  C23        4.2530   19.6480   13.7600 C.ar    1  LIG1       -0.0457
     27  C24        6.2840   20.7830   10.6380 C.2     1  LIG1        0.2662
     28  N3         6.0960   21.0900    9.3510 N.pl3   1  LIG1       -0.2497
     29  N4         7.5350   20.7620   11.1310 N.2     1  LIG1       -0.2884
     30  O2         3.2780   16.4440   16.7550 O.2     1  LIG1       -0.2505
     31  O3         0.8880   18.8720   19.2000 O.2     1  LIG1       -0.2702
     32  C25        1.8210   15.4540   14.5680 C.3     1  LIG1        0.0817
     33  O4        -6.0640   27.1440   19.1990 O.3     1  LIG1       -0.2829
     34  H1         1.9140   20.9200   17.0540 H       1  LIG1        0.1493
     35  H2         5.1860   21.1090    8.9770 H       1  LIG1        0.2883
     36  H3         7.6870   20.5370   12.0770 H       1  LIG1        0.3009
     37  H4         8.2980   20.9710   10.5460 H       1  LIG1        0.3009
     38  H5        -6.3750   27.2150   20.1150 H       1  LIG1        0.2448
     39 H          -2.1764   25.4966   17.5666 H       1  LIG1        0.0600
     40 H          -4.4588   23.0369   20.2157 H       1  LIG1        0.0600
     41 H          -6.1280   24.8264   20.3820 H       1  LIG1        0.0831
     42 H          -3.8996   27.2149   17.8068 H       1  LIG1        0.0831
     43 H           0.0902   21.6650   16.4691 H       1  LIG1        0.0625
     44 H          -0.5880   20.5425   20.5546 H       1  LIG1        0.0625
     45 H          -2.2915   22.2777   20.7508 H       1  LIG1        0.0621
     46 H          -1.6233   23.4056   16.7081 H       1  LIG1        0.0621
     47 H           3.0011   18.3416   18.0695 H       1  LIG1        0.0504
     48 H           4.4394   20.8697   17.3124 H       1  LIG1        0.0248
     49 H           5.1937   19.3605   17.7668 H       1  LIG1        0.0248
     50 H           4.2455   20.2496   18.9345 H       1  LIG1        0.0248
     51 H           2.3124   19.2134   15.4489 H       1  LIG1        0.0435
     52 H           5.0499   18.2300   15.1257 H       1  LIG1        0.0322
     53 H           4.8701   19.9082   15.7448 H       1  LIG1        0.0322
     54 H           6.3431   19.8017   13.2108 H       1  LIG1        0.0629
     55 H           3.6206   21.0543   10.1289 H       1  LIG1        0.0626
     56 H           1.7243   20.5400   11.6023 H       1  LIG1        0.0618
     57 H           2.1081   19.6708   13.8721 H       1  LIG1        0.0620
     58 H           6.8683   21.2973    8.7768 H       1  LIG1        0.2883
     59 H           1.2325   15.4002   13.6760 H       1  LIG1        0.0661
     60 H           1.2703   15.0355   15.3844 H       1  LIG1        0.0661
     61 H           2.7283   14.9037   14.4304 H       1  LIG1        0.0661
@<TRIPOS>BOND
     1     1     2    1
     2     1     6    2
     3     2     3    1
     4     2    11    1
     5     3     4    2
     6     4     5    1
     7     5     6    1
     8     5    33    1
     9     7     8   ar
    10     7    12   ar
    11     8     9   ar
    12     8    13    1
    13     9    10   ar
    14    10    11   ar
    15    11    12   ar
    16    13    14   am
    17    13    31    2
    18    14    15    1
    19    14    34    1
    20    15    16    1
    21    15    17    1
    22    17    18    1
    23    17    20    1
    24    18    19    1
    25    18    30    2
    26    19    32    1
    27    20    26    1
    28    21    22   ar
    29    21    26   ar
    30    22    23   ar
    31    22    27    1
    32    23    24   ar
    33    24    25   ar
    34    25    26   ar
    35    27    28    1
    36    27    29    2
    37    28    35    1
    38    29    36    1
    39    29    37    1
    40    33    38    1
    41     1    39    1
    42     3    40    1
    43     4    41    1
    44     6    42    1
    45     7    43    1
    46     9    44    1
    47    10    45    1
    48    12    46    1
    49    15    47    1
    50    16    48    1
    51    16    49    1
    52    16    50    1
    53    17    51    1
    54    20    52    1
    55    20    53    1
    56    21    54    1
    57    23    55    1
    58    24    56    1
    59    25    57    1
    60    28    58    1
    61    32    59    1
    62    32    60    1
    63    32    61    1
