@<TRIPOS>MOLECULE
pose4.pdb
 61 63 0 0 0
SMALL
GASTEIGER

@<TRIPOS>ATOM
      1  C1        -4.1180   26.6470   18.3490 C.2     1  LIG1       -0.0498
      2  C2        -2.8090   26.4890   17.7860 C.3     1  LIG1        0.0517
      3  C3        -2.1090   27.6770   17.3630 C.2     1  LIG1       -0.0498
      4  C4        -2.7210   28.9660   17.5060 C.2     1  LIG1        0.0304
      5  N1        -3.9760   29.1030   18.0450 N.4     1  LIG1       -0.2387
      6  C5        -4.6600   27.9630   18.4580 C.2     1  LIG1        0.0304
      7  C6        -1.8680   23.0010   16.3540 C.ar    1  LIG1       -0.0493
      8  C7        -0.9610   22.4950   17.3820 C.ar    1  LIG1        0.0367
      9  C8        -0.6990   23.3330   18.5260 C.ar    1  LIG1       -0.0493
     10  C9        -1.3010   24.6190   18.6600 C.ar    1  LIG1       -0.0567
     11  C10       -2.1910   25.1300   17.6570 C.ar    1  LIG1       -0.0321
     12  C11       -2.4580   24.2990   16.5140 C.ar    1  LIG1       -0.0567
     13  C12       -0.2910   21.2010   17.3090 C.2     1  LIG1        0.2443
     14  N2        -0.7340   20.3950   16.3250 N.am    1  LIG1       -0.3080
     15  C13       -0.1750   19.0940   16.0580 C.3     1  LIG1        0.0338
     16  C14       -0.7000   18.6340   14.6810 C.3     1  LIG1       -0.0458
     17  C15       -0.5510   18.1390   17.2520 C.3     1  LIG1        0.0784
     18  C16       -1.9280   18.5360   17.8160 C.2     1  LIG1        0.3120
     19  O1        -2.7760   18.9350   16.8290 O.3     1  LIG1       -0.4677
     20  C17        0.5480   18.0900   18.4070 C.3     1  LIG1       -0.0130
     21  C18        2.4090   18.1100   16.5410 C.ar    1  LIG1       -0.0438
     22  C19        3.8170   18.1390   16.1480 C.ar    1  LIG1        0.0611
     23  C20        4.8270   18.1810   17.1920 C.ar    1  LIG1       -0.0470
     24  C21        4.4490   18.1960   18.5730 C.ar    1  LIG1       -0.0607
     25  C22        3.0590   18.1660   18.9480 C.ar    1  LIG1       -0.0585
     26  C23        2.0150   18.1250   17.9510 C.ar    1  LIG1       -0.0457
     27  C24        4.2160   18.1250   14.7390 C.2     1  LIG1        0.2662
     28  N3         5.4930   18.2630   14.3700 N.pl3   1  LIG1       -0.2497
     29  N4         3.2740   17.9630   13.7930 N.2     1  LIG1       -0.2884
     30  O2        -2.2010   18.5060   18.9650 O.2     1  LIG1       -0.2505
     31  O3         0.6300   20.8740   18.0810 O.2     1  LIG1       -0.2702
     32  C25       -3.9160   19.7580   17.0880 C.3     1  LIG1        0.0817
     33  O4        -4.5610   30.3270   18.1820 O.3     1  LIG1       -0.2829
     34  H1        -1.4760   20.7100   15.7600 H       1  LIG1        0.1493
     35  H2         6.1920   18.3820   15.0520 H       1  LIG1        0.2883
     36  H3         2.3300   17.8600   14.0510 H       1  LIG1        0.3009
     37  H4         3.5290   17.9470   12.8420 H       1  LIG1        0.3009
     38  H5        -4.0520   30.9850   17.6830 H       1  LIG1        0.2448
     39 H          -4.6568   25.8269   18.6686 H       1  LIG1        0.0600
     40 H          -1.1639   27.5991   16.9558 H       1  LIG1        0.0600
     41 H          -2.2081   29.8068   17.1978 H       1  LIG1        0.0831
     42 H          -5.6031   28.0746   18.8619 H       1  LIG1        0.0831
     43 H          -2.0820   22.4304   15.5212 H       1  LIG1        0.0625
     44 H          -0.0619   22.9947   19.2640 H       1  LIG1        0.0625
     45 H          -1.0929   25.1920   19.4927 H       1  LIG1        0.0621
     46 H          -3.0968   24.6488   15.7828 H       1  LIG1        0.0621
     47 H           0.8935   19.0958   16.0009 H       1  LIG1        0.0504
     48 H          -1.7698   18.6179   14.6944 H       1  LIG1        0.0248
     49 H          -0.3311   17.6523   14.4684 H       1  LIG1        0.0248
     50 H          -0.3629   19.3130   13.9258 H       1  LIG1        0.0248
     51 H          -0.5912   17.1456   16.8564 H       1  LIG1        0.0435
     52 H           0.3998   17.1862   18.9602 H       1  LIG1        0.0322
     53 H           0.4042   18.9844   18.9765 H       1  LIG1        0.0322
     54 H           1.6798   18.0784   15.8114 H       1  LIG1        0.0629
     55 H           5.8264   18.2002   16.9356 H       1  LIG1        0.0626
     56 H           5.1769   18.2285   19.3038 H       1  LIG1        0.0618
     57 H           2.8041   18.1739   19.9480 H       1  LIG1        0.0620
     58 H           5.7343   18.2456   13.4157 H       1  LIG1        0.2883
     59 H          -4.4356   19.9462   16.1718 H       1  LIG1        0.0661
     60 H          -3.5965   20.6861   17.5140 H       1  LIG1        0.0661
     61 H          -4.5691   19.2577   17.7721 H       1  LIG1        0.0661
@<TRIPOS>BOND
     1     1     2    1
     2     1     6    2
     3     2     3    1
     4     2    11    1
     5     3     4    2
     6     4     5    1
     7     5     6    1
     8     5    33    1
     9     7     8   ar
    10     7    12   ar
    11     8     9   ar
    12     8    13    1
    13     9    10   ar
    14    10    11   ar
    15    11    12   ar
    16    13    14   am
    17    13    31    2
    18    14    15    1
    19    14    34    1
    20    15    16    1
    21    15    17    1
    22    17    18    1
    23    17    20    1
    24    18    19    1
    25    18    30    2
    26    19    32    1
    27    20    26    1
    28    21    22   ar
    29    21    26   ar
    30    22    23   ar
    31    22    27    1
    32    23    24   ar
    33    24    25   ar
    34    25    26   ar
    35    27    28    1
    36    27    29    2
    37    28    35    1
    38    29    36    1
    39    29    37    1
    40    33    38    1
    41     1    39    1
    42     3    40    1
    43     4    41    1
    44     6    42    1
    45     7    43    1
    46     9    44    1
    47    10    45    1
    48    12    46    1
    49    15    47    1
    50    16    48    1
    51    16    49    1
    52    16    50    1
    53    17    51    1
    54    20    52    1
    55    20    53    1
    56    21    54    1
    57    23    55    1
    58    24    56    1
    59    25    57    1
    60    28    58    1
    61    32    59    1
    62    32    60    1
    63    32    61    1
