@<TRIPOS>MOLECULE
pose3.pdb
 61 63 0 0 0
SMALL
GASTEIGER

@<TRIPOS>ATOM
      1  C1        -1.0640   14.6540   16.6760 C.2     1  LIG1       -0.0498
      2  C2        -1.6260   15.2210   15.4840 C.3     1  LIG1        0.0517
      3  C3        -1.9460   14.3280   14.3980 C.2     1  LIG1       -0.0498
      4  C4        -1.7000   12.9210   14.5240 C.2     1  LIG1        0.0304
      5  N1        -1.1610   12.3900   15.6690 N.4     1  LIG1       -0.2387
      6  C5        -0.8500   13.2440   16.7250 C.2     1  LIG1        0.0304
      7  C6        -3.4860   18.6130   15.1110 C.ar    1  LIG1       -0.0493
      8  C7        -2.3850   19.5670   15.2290 C.ar    1  LIG1        0.0367
      9  C8        -1.0540   19.0460   15.4200 C.ar    1  LIG1       -0.0493
     10  C9        -0.8080   17.6430   15.4950 C.ar    1  LIG1       -0.0567
     11  C10       -1.8790   16.6950   15.3860 C.ar    1  LIG1       -0.0321
     12  C11       -3.2090   17.2080   15.1920 C.ar    1  LIG1       -0.0567
     13  C12       -2.5570   21.0150   15.1810 C.2     1  LIG1        0.2443
     14  N2        -1.6650   21.7100   15.9140 N.am    1  LIG1       -0.3080
     15  C13       -1.6370   23.1500   15.9650 C.3     1  LIG1        0.0338
     16  C14       -0.4010   23.6210   15.1690 C.3     1  LIG1       -0.0458
     17  C15       -1.6460   23.5920   17.4760 C.3     1  LIG1        0.0784
     18  C16       -1.6030   25.1290   17.5650 C.2     1  LIG1        0.3120
     19  O1        -2.8500   25.6680   17.4840 O.3     1  LIG1       -0.4677
     20  C17       -0.4780   22.9360   18.3440 C.3     1  LIG1       -0.0130
     21  C18       -0.3670   20.6580   19.6660 C.ar    1  LIG1       -0.0438
     22  C19       -0.8190   19.7980   20.7580 C.ar    1  LIG1        0.0611
     23  C20       -1.8380   20.3040   21.6630 C.ar    1  LIG1       -0.0470
     24  C21       -2.3830   21.6160   21.4890 C.ar    1  LIG1       -0.0607
     25  C22       -1.9310   22.4540   20.4080 C.ar    1  LIG1       -0.0585
     26  C23       -0.9200   22.0010   19.4810 C.ar    1  LIG1       -0.0457
     27  C24       -0.2690   18.4540   20.9480 C.2     1  LIG1        0.2662
     28  N3        -1.0580   17.3860   21.0910 N.pl3   1  LIG1       -0.2497
     29  N4         1.0660   18.2900   20.9730 N.2     1  LIG1       -0.2884
     30  O2        -0.6060   25.7530   17.6770 O.2     1  LIG1       -0.2505
     31  O3        -3.4420   21.5670   14.5020 O.2     1  LIG1       -0.2702
     32  C25       -3.0790   27.0780   17.5580 C.3     1  LIG1        0.0817
     33  O4        -0.9260   11.0530   15.7900 O.3     1  LIG1       -0.2829
     34  H1        -1.0000   21.2100   16.4390 H       1  LIG1        0.1493
     35  H2        -2.0370   17.4920   21.0740 H       1  LIG1        0.2883
     36  H3         1.6600   19.0690   20.8690 H       1  LIG1        0.3009
     37  H4         1.4500   17.3920   21.0960 H       1  LIG1        0.3009
     38  H5         0.0210   10.9030   15.9350 H       1  LIG1        0.2448
     39 H          -0.8199   15.2527   17.4804 H       1  LIG1        0.0600
     40 H          -2.3535   14.7028   13.5271 H       1  LIG1        0.0600
     41 H          -1.9330   12.2948   13.7375 H       1  LIG1        0.0831
     42 H          -0.4458   12.8376   17.5832 H       1  LIG1        0.0831
     43 H          -4.4524   18.9468   14.9709 H       1  LIG1        0.0625
     44 H          -0.2622   19.7025   15.5043 H       1  LIG1        0.0625
     45 H           0.1573   17.3040   15.6300 H       1  LIG1        0.0621
     46 H          -3.9920   16.5410   15.1081 H       1  LIG1        0.0621
     47 H          -2.4932   23.6063   15.5137 H       1  LIG1        0.0504
     48 H           0.4813   23.1855   15.5895 H       1  LIG1        0.0248
     49 H          -0.3304   24.6875   15.2180 H       1  LIG1        0.0248
     50 H          -0.4971   23.3164   14.1478 H       1  LIG1        0.0248
     51 H          -2.5571   23.2275   17.9024 H       1  LIG1        0.0435
     52 H           0.0919   23.7308   18.7780 H       1  LIG1        0.0322
     53 H           0.0720   22.3195   17.6641 H       1  LIG1        0.0322
     54 H           0.3545   20.3126   19.0140 H       1  LIG1        0.0629
     55 H          -2.1719   19.7111   22.4389 H       1  LIG1        0.0626
     56 H          -3.1034   21.9634   22.1412 H       1  LIG1        0.0618
     57 H          -2.3371   23.3958   20.2937 H       1  LIG1        0.0620
     58 H          -0.6613   16.4933   21.2133 H       1  LIG1        0.2883
     59 H          -4.1274   27.2740   17.4725 H       1  LIG1        0.0661
     60 H          -2.5587   27.5662   16.7606 H       1  LIG1        0.0661
     61 H          -2.7222   27.4485   18.4963 H       1  LIG1        0.0661
@<TRIPOS>BOND
     1     1     2    1
     2     1     6    2
     3     2     3    1
     4     2    11    1
     5     3     4    2
     6     4     5    1
     7     5     6    1
     8     5    33    1
     9     7     8   ar
    10     7    12   ar
    11     8     9   ar
    12     8    13    1
    13     9    10   ar
    14    10    11   ar
    15    11    12   ar
    16    13    14   am
    17    13    31    2
    18    14    15    1
    19    14    34    1
    20    15    16    1
    21    15    17    1
    22    17    18    1
    23    17    20    1
    24    18    19    1
    25    18    30    2
    26    19    32    1
    27    20    26    1
    28    21    22   ar
    29    21    26   ar
    30    22    23   ar
    31    22    27    1
    32    23    24   ar
    33    24    25   ar
    34    25    26   ar
    35    27    28    1
    36    27    29    2
    37    28    35    1
    38    29    36    1
    39    29    37    1
    40    33    38    1
    41     1    39    1
    42     3    40    1
    43     4    41    1
    44     6    42    1
    45     7    43    1
    46     9    44    1
    47    10    45    1
    48    12    46    1
    49    15    47    1
    50    16    48    1
    51    16    49    1
    52    16    50    1
    53    17    51    1
    54    20    52    1
    55    20    53    1
    56    21    54    1
    57    23    55    1
    58    24    56    1
    59    25    57    1
    60    28    58    1
    61    32    59    1
    62    32    60    1
    63    32    61    1
