@<TRIPOS>MOLECULE
pose0.pdb
 61 63 0 0 0
SMALL
GASTEIGER

@<TRIPOS>ATOM
      1  C1        -1.3570   25.2220   16.9140 C.2     1  LIG1       -0.0498
      2  C2        -2.6760   24.6630   16.8380 C.3     1  LIG1        0.0517
      3  C3        -3.7950   25.5370   17.0890 C.2     1  LIG1       -0.0498
      4  C4        -3.5750   26.9180   17.4050 C.2     1  LIG1        0.0304
      5  N1        -2.3080   27.4410   17.4760 N.4     1  LIG1       -0.2387
      6  C5        -1.2210   26.6060   17.2340 C.2     1  LIG1        0.0304
      7  C6        -3.4700   20.8750   17.2030 C.ar    1  LIG1       -0.0493
      8  C7        -3.2980   20.4050   15.8300 C.ar    1  LIG1        0.0367
      9  C8        -2.9130   21.3660   14.8280 C.ar    1  LIG1       -0.0493
     10  C9        -2.7050   22.7400   15.1540 C.ar    1  LIG1       -0.0567
     11  C10       -2.8740   23.2170   16.4970 C.ar    1  LIG1       -0.0321
     12  C11       -3.2560   22.2620   17.5020 C.ar    1  LIG1       -0.0567
     13  C12       -3.5100   19.0230   15.4130 C.2     1  LIG1        0.2443
     14  N2        -3.0860   18.0990   16.2960 N.am    1  LIG1       -0.3080
     15  C13       -3.2430   16.6810   16.0920 C.3     1  LIG1        0.0338
     16  C14       -4.2690   16.1720   17.1280 C.3     1  LIG1       -0.0458
     17  C15       -1.8240   16.0060   16.1940 C.3     1  LIG1        0.0784
     18  C16       -1.3250   16.0710   17.6500 C.2     1  LIG1        0.3120
     19  O1        -0.3210   15.1810   17.8740 O.3     1  LIG1       -0.4677
     20  C17       -0.7460   16.6210   15.1920 C.3     1  LIG1       -0.0130
     21  C18        1.6270   17.7430   15.4320 C.ar    1  LIG1       -0.0438
     22  C19        2.5010   18.7570   16.0200 C.ar    1  LIG1        0.0611
     23  C20        1.9310   19.6990   16.9680 C.ar    1  LIG1       -0.0470
     24  C21        0.5440   19.6360   17.3150 C.ar    1  LIG1       -0.0607
     25  C22       -0.3080   18.6330   16.7300 C.ar    1  LIG1       -0.0585
     26  C23        0.2070   17.6730   15.7820 C.ar    1  LIG1       -0.0457
     27  C24        3.9220   18.8320   15.6730 C.2     1  LIG1        0.2662
     28  N3         4.3420   18.7350   14.4080 N.pl3   1  LIG1       -0.2497
     29  N4         4.8280   19.0080   16.6510 N.2     1  LIG1       -0.2884
     30  O2        -1.7740   16.7980   18.4670 O.2     1  LIG1       -0.2505
     31  O3        -4.0590   18.7200   14.3370 O.2     1  LIG1       -0.2702
     32  C25       -0.0240   14.6760   19.1780 C.3     1  LIG1        0.0817
     33  O4        -2.0970   28.7530   17.7770 O.3     1  LIG1       -0.2829
     34  H1        -2.6470   18.4070   17.1220 H       1  LIG1        0.1493
     35  H2         3.6900   18.6050   13.6810 H       1  LIG1        0.2883
     36  H3         4.5320   19.0810   17.5880 H       1  LIG1        0.3009
     37  H4         5.7860   19.0640   16.4320 H       1  LIG1        0.3009
     38  H5        -1.6130   29.1780   17.0520 H       1  LIG1        0.2448
     39 H          -0.5251   24.6363   16.7411 H       1  LIG1        0.0600
     40 H          -4.7573   25.1673   17.0410 H       1  LIG1        0.0600
     41 H          -4.3857   27.5313   17.5827 H       1  LIG1        0.0831
     42 H          -0.2716   27.0068   17.2886 H       1  LIG1        0.0831
     43 H          -3.7424   20.2165   17.9495 H       1  LIG1        0.0625
     44 H          -2.7847   21.0540   13.8527 H       1  LIG1        0.0625
     45 H          -2.4285   23.4014   14.4116 H       1  LIG1        0.0621
     46 H          -3.3808   22.5861   18.4738 H       1  LIG1        0.0621
     47 H          -3.6246   16.4319   15.1239 H       1  LIG1        0.0504
     48 H          -3.9240   16.4021   18.1144 H       1  LIG1        0.0248
     49 H          -4.3817   15.1127   17.0276 H       1  LIG1        0.0248
     50 H          -5.2121   16.6486   16.9598 H       1  LIG1        0.0248
     51 H          -1.9415   14.9858   15.8936 H       1  LIG1        0.0435
     52 H          -1.2761   17.0782   14.3827 H       1  LIG1        0.0322
     53 H          -0.1230   15.8005   14.9031 H       1  LIG1        0.0322
     54 H           2.0176   17.0652   14.7589 H       1  LIG1        0.0629
     55 H           2.5323   20.4207   17.3954 H       1  LIG1        0.0626
     56 H           0.1522   20.3130   17.9881 H       1  LIG1        0.0618
     57 H          -1.3053   18.5997   16.9932 H       1  LIG1        0.0620
     58 H           5.3031   18.7935   14.2026 H       1  LIG1        0.2883
     59 H           0.7986   13.9944   19.1177 H       1  LIG1        0.0661
     60 H          -0.8810   14.1671   19.5671 H       1  LIG1        0.0661
     61 H           0.2327   15.4885   19.8252 H       1  LIG1        0.0661
@<TRIPOS>BOND
     1     1     2    1
     2     1     6    2
     3     2     3    1
     4     2    11    1
     5     3     4    2
     6     4     5    1
     7     5     6    1
     8     5    33    1
     9     7     8   ar
    10     7    12   ar
    11     8     9   ar
    12     8    13    1
    13     9    10   ar
    14    10    11   ar
    15    11    12   ar
    16    13    14   am
    17    13    31    2
    18    14    15    1
    19    14    34    1
    20    15    16    1
    21    15    17    1
    22    17    18    1
    23    17    20    1
    24    18    19    1
    25    18    30    2
    26    19    32    1
    27    20    26    1
    28    21    22   ar
    29    21    26   ar
    30    22    23   ar
    31    22    27    1
    32    23    24   ar
    33    24    25   ar
    34    25    26   ar
    35    27    28    1
    36    27    29    2
    37    28    35    1
    38    29    36    1
    39    29    37    1
    40    33    38    1
    41     1    39    1
    42     3    40    1
    43     4    41    1
    44     6    42    1
    45     7    43    1
    46     9    44    1
    47    10    45    1
    48    12    46    1
    49    15    47    1
    50    16    48    1
    51    16    49    1
    52    16    50    1
    53    17    51    1
    54    20    52    1
    55    20    53    1
    56    21    54    1
    57    23    55    1
    58    24    56    1
    59    25    57    1
    60    28    58    1
    61    32    59    1
    62    32    60    1
    63    32    61    1
