@<TRIPOS>MOLECULE
pose2.pdb
 61 63 0 0 0
SMALL
GASTEIGER

@<TRIPOS>ATOM
      1  C1        -3.1860   25.2100   17.0540 C.2     1  LIG1       -0.0498
      2  C2        -1.9790   24.9790   17.7940 C.3     1  LIG1        0.0517
      3  C3        -1.0650   26.0820   17.9560 C.2     1  LIG1       -0.0498
      4  C4        -1.3690   27.3620   17.3850 C.2     1  LIG1        0.0304
      5  N1        -2.5270   27.5700   16.6780 N.4     1  LIG1       -0.2387
      6  C5        -3.4170   26.5110   16.5170 C.2     1  LIG1        0.0304
      7  C6        -1.1140   22.2120   20.3830 C.ar    1  LIG1       -0.0493
      8  C7        -1.1670   21.0080   19.5560 C.ar    1  LIG1        0.0367
      9  C8        -1.4820   21.1600   18.1580 C.ar    1  LIG1       -0.0493
     10  C9        -1.7370   22.4430   17.5870 C.ar    1  LIG1       -0.0567
     11  C10       -1.6920   23.6320   18.3870 C.ar    1  LIG1       -0.0321
     12  C11       -1.3770   23.4880   19.7830 C.ar    1  LIG1       -0.0567
     13  C12       -0.9380   19.6610   20.0680 C.2     1  LIG1        0.2443
     14  N2        -0.2150   18.8670   19.2540 N.am    1  LIG1       -0.3080
     15  C13        0.1580   17.5180   19.5950 C.3     1  LIG1        0.0338
     16  C14        1.6750   17.3760   19.3460 C.3     1  LIG1       -0.0458
     17  C15       -0.7350   16.5300   18.7530 C.3     1  LIG1        0.0784
     18  C16       -0.9410   15.2230   19.5400 C.2     1  LIG1        0.3120
     19  O1        -1.9760   15.3240   20.4170 O.3     1  LIG1       -0.4677
     20  C17       -0.1660   16.2360   17.2920 C.3     1  LIG1       -0.0130
     21  C18       -0.9590   14.9960   15.1050 C.ar    1  LIG1       -0.0438
     22  C19       -1.9780   14.7350   14.0900 C.ar    1  LIG1        0.0611
     23  C20       -3.2520   15.4260   14.1920 C.ar    1  LIG1       -0.0470
     24  C21       -3.5040   16.3380   15.2660 C.ar    1  LIG1       -0.0607
     25  C22       -2.4930   16.5880   16.2610 C.ar    1  LIG1       -0.0585
     26  C23       -1.2090   15.9280   16.2060 C.ar    1  LIG1       -0.0457
     27  C24       -1.7320   13.8030   12.9860 C.2     1  LIG1        0.2662
     28  N3        -2.1220   14.0760   11.7380 N.pl3   1  LIG1       -0.2497
     29  N4        -1.0930   12.6460   13.2360 N.2     1  LIG1       -0.2884
     30  O2        -0.2690   14.2600   19.4020 O.2     1  LIG1       -0.2505
     31  O3        -1.3580   19.2800   21.1770 O.2     1  LIG1       -0.2702
     32  C25       -2.2700   14.3040   21.3750 C.3     1  LIG1        0.0817
     33  O4        -2.8180   28.7850   16.1340 O.3     1  LIG1       -0.2829
     34  H1         0.0740   19.2270   18.3840 H       1  LIG1        0.1493
     35  H2        -2.5910   14.9190   11.5410 H       1  LIG1        0.2883
     36  H3        -0.8000   12.4330   14.1510 H       1  LIG1        0.3009
     37  H4        -0.9180   12.0130   12.5020 H       1  LIG1        0.3009
     38  H5        -2.0120   29.1730   15.7590 H       1  LIG1        0.2448
     39 H          -3.8718   24.4518   16.9133 H       1  LIG1        0.0600
     40 H          -0.1887   25.9500   18.4848 H       1  LIG1        0.0600
     41 H          -0.7043   28.1417   17.5081 H       1  LIG1        0.0831
     42 H          -4.2851   26.6754   15.9837 H       1  LIG1        0.0831
     43 H          -0.8897   22.1447   21.3881 H       1  LIG1        0.0625
     44 H          -1.5241   20.3226   17.5564 H       1  LIG1        0.0625
     45 H          -1.9575   22.5161   16.5815 H       1  LIG1        0.0621
     46 H          -1.3388   24.3331   20.3741 H       1  LIG1        0.0621
     47 H          -0.0151   17.2782   20.6233 H       1  LIG1        0.0504
     48 H           1.8920   17.6081   18.3243 H       1  LIG1        0.0248
     49 H           1.9784   16.3716   19.5558 H       1  LIG1        0.0248
     50 H           2.2060   18.0499   19.9854 H       1  LIG1        0.0248
     51 H          -1.6765   17.0143   18.5983 H       1  LIG1        0.0435
     52 H           0.4914   15.3946   17.3611 H       1  LIG1        0.0322
     53 H           0.3098   17.1430   16.9825 H       1  LIG1        0.0322
     54 H          -0.0479   14.5151   15.0445 H       1  LIG1        0.0629
     55 H          -3.9826   15.2576   13.4829 H       1  LIG1        0.0626
     56 H          -4.4149   16.8190   15.3278 H       1  LIG1        0.0618
     57 H          -2.6894   17.2508   17.0273 H       1  LIG1        0.0620
     58 H          -1.9403   13.4336   11.0144 H       1  LIG1        0.2883
     59 H          -3.1206   14.5944   21.9555 H       1  LIG1        0.0661
     60 H          -1.4275   14.1673   22.0204 H       1  LIG1        0.0661
     61 H          -2.4819   13.3870   20.8660 H       1  LIG1        0.0661
@<TRIPOS>BOND
     1     1     2    1
     2     1     6    2
     3     2     3    1
     4     2    11    1
     5     3     4    2
     6     4     5    1
     7     5     6    1
     8     5    33    1
     9     7     8   ar
    10     7    12   ar
    11     8     9   ar
    12     8    13    1
    13     9    10   ar
    14    10    11   ar
    15    11    12   ar
    16    13    14   am
    17    13    31    2
    18    14    15    1
    19    14    34    1
    20    15    16    1
    21    15    17    1
    22    17    18    1
    23    17    20    1
    24    18    19    1
    25    18    30    2
    26    19    32    1
    27    20    26    1
    28    21    22   ar
    29    21    26   ar
    30    22    23   ar
    31    22    27    1
    32    23    24   ar
    33    24    25   ar
    34    25    26   ar
    35    27    28    1
    36    27    29    2
    37    28    35    1
    38    29    36    1
    39    29    37    1
    40    33    38    1
    41     1    39    1
    42     3    40    1
    43     4    41    1
    44     6    42    1
    45     7    43    1
    46     9    44    1
    47    10    45    1
    48    12    46    1
    49    15    47    1
    50    16    48    1
    51    16    49    1
    52    16    50    1
    53    17    51    1
    54    20    52    1
    55    20    53    1
    56    21    54    1
    57    23    55    1
    58    24    56    1
    59    25    57    1
    60    28    58    1
    61    32    59    1
    62    32    60    1
    63    32    61    1
