@<TRIPOS>MOLECULE
pose9.pdb
 61 63 0 0 0
SMALL
GASTEIGER

@<TRIPOS>ATOM
      1  C1         6.3830   19.7070   12.1060 C.2     1  LIG1       -0.0498
      2  C2         5.0380   19.9980   12.5110 C.3     1  LIG1        0.0517
      3  C3         4.1830   20.6790   11.5710 C.2     1  LIG1       -0.0498
      4  C4         4.6800   21.0470   10.2770 C.2     1  LIG1        0.0304
      5  N1         5.9710   20.7640    9.9020 N.4     1  LIG1       -0.2387
      6  C5         6.8040   20.1050   10.8020 C.2     1  LIG1        0.0304
      7  C6         4.4900   19.9420   16.3580 C.ar    1  LIG1       -0.0493
      8  C7         3.5540   18.8300   16.5060 C.ar    1  LIG1        0.0367
      9  C8         3.1430   18.1280   15.3170 C.ar    1  LIG1       -0.0493
     10  C9         3.6280   18.5000   14.0270 C.ar    1  LIG1       -0.0567
     11  C10        4.5430   19.5920   13.8660 C.ar    1  LIG1       -0.0321
     12  C11        4.9600   20.2960   15.0490 C.ar    1  LIG1       -0.0567
     13  C12        2.9990   18.4010   17.7850 C.2     1  LIG1        0.2443
     14  N2         2.0080   17.4940   17.6910 N.am    1  LIG1       -0.3080
     15  C13        1.3590   16.9120   18.8380 C.3     1  LIG1        0.0338
     16  C14        0.0220   16.3040   18.3590 C.3     1  LIG1       -0.0458
     17  C15        1.2090   18.0260   19.9410 C.3     1  LIG1        0.0784
     18  C16        1.3170   17.3870   21.3380 C.2     1  LIG1        0.3120
     19  O1         1.6460   18.3070   22.2840 O.3     1  LIG1       -0.4677
     20  C17       -0.1270   18.8870   19.8070 C.3     1  LIG1       -0.0130
     21  C18       -0.5800   21.4820   19.8840 C.ar    1  LIG1       -0.0438
     22  C19       -0.4040   22.8210   19.3240 C.ar    1  LIG1        0.0611
     23  C20        0.3970   22.9700   18.1200 C.ar    1  LIG1       -0.0470
     24  C21        1.0020   21.8300   17.5000 C.ar    1  LIG1       -0.0607
     25  C22        0.8210   20.5150   18.0610 C.ar    1  LIG1       -0.0585
     26  C23        0.0350   20.3120   19.2560 C.ar    1  LIG1       -0.0457
     27  C24       -1.0170   23.9950   19.9490 C.2     1  LIG1        0.2662
     28  N3        -1.5230   23.9490   21.1850 N.pl3   1  LIG1       -0.2497
     29  N4        -1.0670   25.1520   19.2640 N.2     1  LIG1       -0.2884
     30  O2         1.1470   16.2370   21.5500 O.2     1  LIG1       -0.2505
     31  O3         3.4210   18.8220   18.8790 O.2     1  LIG1       -0.2702
     32  C25        2.5310   18.0080   23.3660 C.3     1  LIG1        0.0817
     33  O4         6.4460   21.1130    8.6740 O.3     1  LIG1       -0.2829
     34  H1         1.7130   17.2140   16.7940 H       1  LIG1        0.1493
     35  H2        -1.4930   23.1090   21.6980 H       1  LIG1        0.2883
     36  H3        -0.6980   25.2000   18.3520 H       1  LIG1        0.3009
     37  H4        -1.4730   25.9500   19.6730 H       1  LIG1        0.3009
     38  H5         7.4140   21.0600    8.6740 H       1  LIG1        0.2448
     39 H           7.0321   19.2204   12.7439 H       1  LIG1        0.0600
     40 H           3.2094   20.9026   11.8303 H       1  LIG1        0.0600
     41 H           4.0558   21.5338    9.6148 H       1  LIG1        0.0831
     42 H           7.7719   19.8944   10.5123 H       1  LIG1        0.0831
     43 H           4.8100   20.4677   17.1864 H       1  LIG1        0.0625
     44 H           2.4833   17.3387   15.3997 H       1  LIG1        0.0625
     45 H           3.3147   17.9740   13.1962 H       1  LIG1        0.0621
     46 H           5.6203   21.0833   14.9531 H       1  LIG1        0.0621
     47 H           1.9220   16.1199   19.2858 H       1  LIG1        0.0504
     48 H          -0.5736   17.0669   17.9029 H       1  LIG1        0.0248
     49 H          -0.5035   15.8939   19.1960 H       1  LIG1        0.0248
     50 H           0.2171   15.5300   17.6464 H       1  LIG1        0.0248
     51 H           2.0100   18.7201   19.7947 H       1  LIG1        0.0435
     52 H          -0.5660   18.9615   20.7799 H       1  LIG1        0.0322
     53 H          -0.7293   18.3700   19.0895 H       1  LIG1        0.0322
     54 H          -1.1478   21.3598   20.7370 H       1  LIG1        0.0629
     55 H           0.5309   23.9067   17.7081 H       1  LIG1        0.0626
     56 H           1.5705   21.9506   16.6472 H       1  LIG1        0.0618
     57 H           1.2611   19.7031   17.6005 H       1  LIG1        0.0620
     58 H          -1.9256   24.7547   21.5825 H       1  LIG1        0.2883
     59 H           2.6453   18.8746   23.9831 H       1  LIG1        0.0661
     60 H           3.4849   17.7187   22.9770 H       1  LIG1        0.0661
     61 H           2.1252   17.2069   23.9477 H       1  LIG1        0.0661
@<TRIPOS>BOND
     1     1     2    1
     2     1     6    2
     3     2     3    1
     4     2    11    1
     5     3     4    2
     6     4     5    1
     7     5     6    1
     8     5    33    1
     9     7     8   ar
    10     7    12   ar
    11     8     9   ar
    12     8    13    1
    13     9    10   ar
    14    10    11   ar
    15    11    12   ar
    16    13    14   am
    17    13    31    2
    18    14    15    1
    19    14    34    1
    20    15    16    1
    21    15    17    1
    22    17    18    1
    23    17    20    1
    24    18    19    1
    25    18    30    2
    26    19    32    1
    27    20    26    1
    28    21    22   ar
    29    21    26   ar
    30    22    23   ar
    31    22    27    1
    32    23    24   ar
    33    24    25   ar
    34    25    26   ar
    35    27    28    1
    36    27    29    2
    37    28    35    1
    38    29    36    1
    39    29    37    1
    40    33    38    1
    41     1    39    1
    42     3    40    1
    43     4    41    1
    44     6    42    1
    45     7    43    1
    46     9    44    1
    47    10    45    1
    48    12    46    1
    49    15    47    1
    50    16    48    1
    51    16    49    1
    52    16    50    1
    53    17    51    1
    54    20    52    1
    55    20    53    1
    56    21    54    1
    57    23    55    1
    58    24    56    1
    59    25    57    1
    60    28    58    1
    61    32    59    1
    62    32    60    1
    63    32    61    1
