@<TRIPOS>MOLECULE
pose7.pdb
 61 63 0 0 0
SMALL
GASTEIGER

@<TRIPOS>ATOM
      1  C1        -4.7580   26.6590   19.7040 C.2     1  LIG1       -0.0498
      2  C2        -3.7500   26.3070   18.7460 C.3     1  LIG1        0.0517
      3  C3        -3.4980   27.2270   17.6640 C.2     1  LIG1       -0.0498
      4  C4        -4.2430   28.4470   17.5650 C.2     1  LIG1        0.0304
      5  N1        -5.2070   28.7720   18.4880 N.4     1  LIG1       -0.2387
      6  C5        -5.4570   27.8910   19.5380 C.2     1  LIG1        0.0304
      7  C6        -0.7950   23.8300   19.2330 C.ar    1  LIG1       -0.0493
      8  C7        -1.4800   22.5410   19.1790 C.ar    1  LIG1        0.0367
      9  C8        -2.9060   22.5390   18.9720 C.ar    1  LIG1       -0.0493
     10  C9        -3.6380   23.7550   18.8250 C.ar    1  LIG1       -0.0567
     11  C10       -2.9800   25.0280   18.8800 C.ar    1  LIG1       -0.0321
     12  C11       -1.5570   25.0370   19.0840 C.ar    1  LIG1       -0.0567
     13  C12       -0.8060   21.2560   19.3390 C.2     1  LIG1        0.2443
     14  N2         0.2790   21.0900   18.5580 N.am    1  LIG1       -0.3080
     15  C13        1.1070   19.9120   18.5980 C.3     1  LIG1        0.0338
     16  C14        2.4090   20.2810   19.3410 C.3     1  LIG1       -0.0458
     17  C15        1.3210   19.4070   17.1210 C.3     1  LIG1        0.0784
     18  C16       -0.0040   18.8490   16.5690 C.2     1  LIG1        0.3120
     19  O1        -0.1070   17.5080   16.7750 O.3     1  LIG1       -0.4677
     20  C17        2.4970   18.3400   16.9710 C.3     1  LIG1       -0.0130
     21  C18        2.5530   18.5210   14.3420 C.ar    1  LIG1       -0.0438
     22  C19        3.2920   18.4980   13.0810 C.ar    1  LIG1        0.0611
     23  C20        4.7270   18.2760   13.1220 C.ar    1  LIG1       -0.0470
     24  C21        5.4010   18.0870   14.3710 C.ar    1  LIG1       -0.0607
     25  C22        4.6630   18.1100   15.6070 C.ar    1  LIG1       -0.0585
     26  C23        3.2350   18.3290   15.6230 C.ar    1  LIG1       -0.0457
     27  C24        2.6140   18.6910   11.7970 C.2     1  LIG1        0.2662
     28  N3         1.3460   18.3130   11.6080 N.pl3   1  LIG1       -0.2497
     29  N4         3.2830   19.2690   10.7830 N.2     1  LIG1       -0.2884
     30  O2        -0.8200   19.5100   16.0250 O.2     1  LIG1       -0.2505
     31  O3        -1.1890   20.3900   20.1480 O.2     1  LIG1       -0.2702
     32  C25        0.0340   16.5600   15.7150 C.3     1  LIG1        0.0817
     33  O4        -5.9170   29.9310   18.3960 O.3     1  LIG1       -0.2829
     34  H1         0.5180   21.8090   17.9300 H       1  LIG1        0.1493
     35  H2         0.8450   17.8900   12.3420 H       1  LIG1        0.2883
     36  H3         4.2180   19.5520   10.9080 H       1  LIG1        0.3009
     37  H4         2.8380   19.4080    9.9150 H       1  LIG1        0.3009
     38  H5        -6.4890   30.0220   19.1740 H       1  LIG1        0.2448
     39 H          -4.9728   26.0340   20.4966 H       1  LIG1        0.0600
     40 H          -2.7782   27.0057   16.9583 H       1  LIG1        0.0600
     41 H          -4.0515   29.0945   16.7846 H       1  LIG1        0.0831
     42 H          -6.1822   28.1417   20.2281 H       1  LIG1        0.0831
     43 H           0.2261   23.8723   19.3768 H       1  LIG1        0.0625
     44 H          -3.4087   21.6387   18.9291 H       1  LIG1        0.0625
     45 H          -4.6586   23.7177   18.6765 H       1  LIG1        0.0621
     46 H          -1.0659   25.9437   19.1248 H       1  LIG1        0.0621
     47 H           0.6607   19.0993   19.1321 H       1  LIG1        0.0504
     48 H           2.8891   21.0937   18.8371 H       1  LIG1        0.0248
     49 H           3.0632   19.4344   19.3562 H       1  LIG1        0.0248
     50 H           2.1771   20.5706   20.3446 H       1  LIG1        0.0248
     51 H           1.6293   20.2534   16.5435 H       1  LIG1        0.0435
     52 H           2.0766   17.3675   17.1210 H       1  LIG1        0.0322
     53 H           3.2314   18.6191   17.6974 H       1  LIG1        0.0322
     54 H           1.5327   18.6753   14.3290 H       1  LIG1        0.0629
     55 H           5.2660   18.2543   12.2422 H       1  LIG1        0.0626
     56 H           6.4214   17.9334   14.3854 H       1  LIG1        0.0618
     57 H           5.1634   17.9674   16.4982 H       1  LIG1        0.0620
     58 H           0.9136   18.4575   10.7354 H       1  LIG1        0.2883
     59 H          -0.0840   15.5701   16.1037 H       1  LIG1        0.0661
     60 H           1.0050   16.6574   15.2762 H       1  LIG1        0.0661
     61 H          -0.7134   16.7426   14.9714 H       1  LIG1        0.0661
@<TRIPOS>BOND
     1     1     2    1
     2     1     6    2
     3     2     3    1
     4     2    11    1
     5     3     4    2
     6     4     5    1
     7     5     6    1
     8     5    33    1
     9     7     8   ar
    10     7    12   ar
    11     8     9   ar
    12     8    13    1
    13     9    10   ar
    14    10    11   ar
    15    11    12   ar
    16    13    14   am
    17    13    31    2
    18    14    15    1
    19    14    34    1
    20    15    16    1
    21    15    17    1
    22    17    18    1
    23    17    20    1
    24    18    19    1
    25    18    30    2
    26    19    32    1
    27    20    26    1
    28    21    22   ar
    29    21    26   ar
    30    22    23   ar
    31    22    27    1
    32    23    24   ar
    33    24    25   ar
    34    25    26   ar
    35    27    28    1
    36    27    29    2
    37    28    35    1
    38    29    36    1
    39    29    37    1
    40    33    38    1
    41     1    39    1
    42     3    40    1
    43     4    41    1
    44     6    42    1
    45     7    43    1
    46     9    44    1
    47    10    45    1
    48    12    46    1
    49    15    47    1
    50    16    48    1
    51    16    49    1
    52    16    50    1
    53    17    51    1
    54    20    52    1
    55    20    53    1
    56    21    54    1
    57    23    55    1
    58    24    56    1
    59    25    57    1
    60    28    58    1
    61    32    59    1
    62    32    60    1
    63    32    61    1
