@<TRIPOS>MOLECULE
pose1.pdb
 61 63 0 0 0
SMALL
GASTEIGER

@<TRIPOS>ATOM
      1  C1        -1.2050   26.1400   16.8890 C.2     1  LIG1       -0.0498
      2  C2        -2.2970   25.7800   17.7470 C.3     1  LIG1        0.0517
      3  C3        -3.2680   26.7980   18.0660 C.2     1  LIG1       -0.0498
      4  C4        -3.1270   28.1220   17.5330 C.2     1  LIG1        0.0304
      5  N1        -2.0760   28.4530   16.7130 N.4     1  LIG1       -0.2387
      6  C5        -1.1340   27.4780   16.3990 C.2     1  LIG1        0.0304
      7  C6        -1.9780   22.7040   20.1020 C.ar    1  LIG1       -0.0493
      8  C7        -2.6950   21.6800   19.3450 C.ar    1  LIG1        0.0367
      9  C8        -3.2550   22.0460   18.0690 C.ar    1  LIG1       -0.0493
     10  C9        -3.1200   23.3690   17.5490 C.ar    1  LIG1       -0.0567
     11  C10       -2.4220   24.3860   18.2820 C.ar    1  LIG1       -0.0321
     12  C11       -1.8600   24.0260   19.5550 C.ar    1  LIG1       -0.0567
     13  C12       -2.8920   20.3130   19.8160 C.2     1  LIG1        0.2443
     14  N2        -1.8380   19.4960   19.6230 N.am    1  LIG1       -0.3080
     15  C13       -1.8160   18.1210   20.0550 C.3     1  LIG1        0.0338
     16  C14       -0.9670   18.0510   21.3440 C.3     1  LIG1       -0.0458
     17  C15       -1.2740   17.2380   18.8700 C.3     1  LIG1        0.0784
     18  C16        0.0880   17.7820   18.4010 C.2     1  LIG1        0.3120
     19  O1         0.0260   19.1130   18.1250 O.3     1  LIG1       -0.4677
     20  C17       -2.2910   17.1110   17.6470 C.3     1  LIG1       -0.0130
     21  C18       -1.9790   15.1720   15.8890 C.ar    1  LIG1       -0.0438
     22  C19       -1.4070   14.6640   14.6430 C.ar    1  LIG1        0.0611
     23  C20       -0.5630   15.5480   13.8570 C.ar    1  LIG1       -0.0470
     24  C21       -0.3000   16.8860   14.2930 C.ar    1  LIG1       -0.0607
     25  C22       -0.8680   17.3750   15.5240 C.ar    1  LIG1       -0.0585
     26  C23       -1.7150   16.5390   16.3420 C.ar    1  LIG1       -0.0457
     27  C24       -1.6690   13.2980   14.1850 C.2     1  LIG1        0.2662
     28  N3        -2.4090   13.0510   13.1000 N.pl3   1  LIG1       -0.2497
     29  N4        -1.1460   12.2650   14.8700 N.2     1  LIG1       -0.2884
     30  O2         1.0580   17.1160   18.2860 O.2     1  LIG1       -0.2505
     31  O3        -3.9410   19.9350   20.3700 O.2     1  LIG1       -0.2702
     32  C25        1.1910   19.8870   17.8300 C.3     1  LIG1        0.0817
     33  O4        -1.9400   29.7110   16.2070 O.3     1  LIG1       -0.2829
     34  H1        -1.0450   19.8550   19.1650 H       1  LIG1        0.1493
     35  H2        -2.7980   13.7970   12.5890 H       1  LIG1        0.2883
     36  H3        -0.5990   12.4330   15.6710 H       1  LIG1        0.3009
     37  H4        -1.3110   11.3420   14.5710 H       1  LIG1        0.3009
     38  H5        -1.0840   29.7880   15.7570 H       1  LIG1        0.2448
     39 H          -0.4861   25.4458   16.6317 H       1  LIG1        0.0600
     40 H          -4.0666   26.5729   18.6797 H       1  LIG1        0.0600
     41 H          -3.8291   28.8402   17.7703 H       1  LIG1        0.0831
     42 H          -0.3471   27.7349   15.7827 H       1  LIG1        0.0831
     43 H          -1.5614   22.4794   21.0191 H       1  LIG1        0.0625
     44 H          -3.7646   21.3368   17.5191 H       1  LIG1        0.0625
     45 H          -3.5314   23.5975   16.6305 H       1  LIG1        0.0621
     46 H          -1.3531   24.7442   20.0956 H       1  LIG1        0.0621
     47 H          -2.7854   17.7374   20.2958 H       1  LIG1        0.0504
     48 H           0.0148   18.4272   21.1453 H       1  LIG1        0.0248
     49 H          -0.8999   17.0348   21.6721 H       1  LIG1        0.0248
     50 H          -1.4279   18.6425   22.1072 H       1  LIG1        0.0248
     51 H          -1.1583   16.2441   19.2489 H       1  LIG1        0.0435
     52 H          -2.6707   18.0887   17.4353 H       1  LIG1        0.0322
     53 H          -3.0338   16.4091   17.9640 H       1  LIG1        0.0322
     54 H          -2.5794   14.5561   16.4592 H       1  LIG1        0.0629
     55 H          -0.1488   15.2077   12.9752 H       1  LIG1        0.0626
     56 H           0.2992   17.5034   13.7231 H       1  LIG1        0.0618
     57 H          -0.6656   18.3407   15.8266 H       1  LIG1        0.0620
     58 H          -2.5651   12.1227   12.8117 H       1  LIG1        0.2883
     59 H           0.9075   20.9022   17.6459 H       1  LIG1        0.0661
     60 H           1.6736   19.4885   16.9621 H       1  LIG1        0.0661
     61 H           1.8639   19.8497   18.6611 H       1  LIG1        0.0661
@<TRIPOS>BOND
     1     1     2    1
     2     1     6    2
     3     2     3    1
     4     2    11    1
     5     3     4    2
     6     4     5    1
     7     5     6    1
     8     5    33    1
     9     7     8   ar
    10     7    12   ar
    11     8     9   ar
    12     8    13    1
    13     9    10   ar
    14    10    11   ar
    15    11    12   ar
    16    13    14   am
    17    13    31    2
    18    14    15    1
    19    14    34    1
    20    15    16    1
    21    15    17    1
    22    17    18    1
    23    17    20    1
    24    18    19    1
    25    18    30    2
    26    19    32    1
    27    20    26    1
    28    21    22   ar
    29    21    26   ar
    30    22    23   ar
    31    22    27    1
    32    23    24   ar
    33    24    25   ar
    34    25    26   ar
    35    27    28    1
    36    27    29    2
    37    28    35    1
    38    29    36    1
    39    29    37    1
    40    33    38    1
    41     1    39    1
    42     3    40    1
    43     4    41    1
    44     6    42    1
    45     7    43    1
    46     9    44    1
    47    10    45    1
    48    12    46    1
    49    15    47    1
    50    16    48    1
    51    16    49    1
    52    16    50    1
    53    17    51    1
    54    20    52    1
    55    20    53    1
    56    21    54    1
    57    23    55    1
    58    24    56    1
    59    25    57    1
    60    28    58    1
    61    32    59    1
    62    32    60    1
    63    32    61    1
