@<TRIPOS>MOLECULE
pose5.pdb
 61 63 0 0 0
SMALL
GASTEIGER

@<TRIPOS>ATOM
      1  C1        -3.6890   23.2510   17.2820 C.2     1  LIG1       -0.0498
      2  C2        -2.4740   23.0280   18.0090 C.3     1  LIG1        0.0517
      3  C3        -2.0680   24.0250   18.9690 C.2     1  LIG1       -0.0498
      4  C4        -2.8680   25.1970   19.1740 C.2     1  LIG1        0.0304
      5  N1        -4.0300   25.4000   18.4700 N.4     1  LIG1       -0.2387
      6  C5        -4.4300   24.4430   17.5420 C.2     1  LIG1        0.0304
      7  C6         0.2430   20.2820   18.4380 C.ar    1  LIG1       -0.0493
      8  C7        -0.1020   19.3550   17.3620 C.ar    1  LIG1        0.0367
      9  C8        -1.2260   19.6820   16.5210 C.ar    1  LIG1       -0.0493
     10  C9        -1.9870   20.8720   16.7250 C.ar    1  LIG1       -0.0567
     11  C10       -1.6630   21.7880   17.7800 C.ar    1  LIG1       -0.0321
     12  C11       -0.5410   21.4690   18.6220 C.ar    1  LIG1       -0.0567
     13  C12        0.6140   18.1120   17.1010 C.2     1  LIG1        0.2443
     14  N2         1.2020   18.0460   15.8900 N.am    1  LIG1       -0.3080
     15  C13        1.9930   16.9220   15.4560 C.3     1  LIG1        0.0338
     16  C14        3.3470   16.9910   16.1950 C.3     1  LIG1       -0.0458
     17  C15        2.1040   16.9720   13.8860 C.3     1  LIG1        0.0784
     18  C16        3.0530   18.1120   13.4720 C.2     1  LIG1        0.3120
     19  O1         4.1910   17.6330   12.9010 O.3     1  LIG1       -0.4677
     20  C17        0.6970   17.1020   13.1460 C.3     1  LIG1       -0.0130
     21  C18       -1.6850   16.0470   13.5510 C.ar    1  LIG1       -0.0438
     22  C19       -2.5540   14.8780   13.6760 C.ar    1  LIG1        0.0611
     23  C20       -1.9660   13.5570   13.5270 C.ar    1  LIG1       -0.0470
     24  C21       -0.5670   13.4070   13.2610 C.ar    1  LIG1       -0.0607
     25  C22        0.2800   14.5660   13.1410 C.ar    1  LIG1       -0.0585
     26  C23       -0.2540   15.9010   13.2800 C.ar    1  LIG1       -0.0457
     27  C24       -3.9860   15.0190   13.9470 C.2     1  LIG1        0.2662
     28  N3        -4.5850   16.2130   13.9560 N.pl3   1  LIG1       -0.2497
     29  N4        -4.7190   13.9170   14.1880 N.2     1  LIG1       -0.2884
     30  O2         2.8190   19.2580   13.6450 O.2     1  LIG1       -0.2505
     31  O3         0.6950   17.1920   17.9360 O.2     1  LIG1       -0.2702
     32  C25        4.9560   18.3950   11.9640 C.3     1  LIG1        0.0817
     33  O4        -4.7910   26.5140   18.6620 O.3     1  LIG1       -0.2829
     34  H1         1.0860   18.8030   15.2720 H       1  LIG1        0.1493
     35  H2        -4.0610   17.0280   13.7810 H       1  LIG1        0.2883
     36  H3        -4.2910   13.0300   14.1840 H       1  LIG1        0.3009
     37  H4        -5.6840   13.9970   14.3680 H       1  LIG1        0.3009
     38  H5        -4.2890   27.2990   18.3940 H       1  LIG1        0.2448
     39 H          -4.0207   22.5650   16.5860 H       1  LIG1        0.0600
     40 H          -1.1989   23.8943   19.5100 H       1  LIG1        0.0600
     41 H          -2.5649   25.9020   19.8640 H       1  LIG1        0.0831
     42 H          -5.3039   24.6028   17.0169 H       1  LIG1        0.0831
     43 H           1.0429   20.0845   19.0594 H       1  LIG1        0.0625
     44 H          -1.4862   19.0417   15.7546 H       1  LIG1        0.0625
     45 H          -2.7843   21.0770   16.1026 H       1  LIG1        0.0621
     46 H          -0.2914   22.1171   19.3854 H       1  LIG1        0.0621
     47 H           1.5530   15.9766   15.6959 H       1  LIG1        0.0504
     48 H           3.8228   17.9253   15.9813 H       1  LIG1        0.0248
     49 H           3.9738   16.1883   15.8668 H       1  LIG1        0.0248
     50 H           3.1827   16.9072   17.2490 H       1  LIG1        0.0248
     51 H           2.5046   16.0311   13.5713 H       1  LIG1        0.0435
     52 H           0.8888   17.2519   12.1041 H       1  LIG1        0.0322
     53 H           0.1965   17.9183   13.6236 H       1  LIG1        0.0322
     54 H          -2.0875   16.9915   13.6556 H       1  LIG1        0.0629
     55 H          -2.5625   12.7193   13.6137 H       1  LIG1        0.0626
     56 H          -0.1633   12.4632   13.1547 H       1  LIG1        0.0618
     57 H           1.2868   14.4403   12.9523 H       1  LIG1        0.0620
     58 H          -5.5504   16.2780   14.1376 H       1  LIG1        0.2883
     59 H           5.8039   17.8241   11.6478 H       1  LIG1        0.0661
     60 H           5.2884   19.3004   12.4274 H       1  LIG1        0.0661
     61 H           4.3483   18.6309   11.1155 H       1  LIG1        0.0661
@<TRIPOS>BOND
     1     1     2    1
     2     1     6    2
     3     2     3    1
     4     2    11    1
     5     3     4    2
     6     4     5    1
     7     5     6    1
     8     5    33    1
     9     7     8   ar
    10     7    12   ar
    11     8     9   ar
    12     8    13    1
    13     9    10   ar
    14    10    11   ar
    15    11    12   ar
    16    13    14   am
    17    13    31    2
    18    14    15    1
    19    14    34    1
    20    15    16    1
    21    15    17    1
    22    17    18    1
    23    17    20    1
    24    18    19    1
    25    18    30    2
    26    19    32    1
    27    20    26    1
    28    21    22   ar
    29    21    26   ar
    30    22    23   ar
    31    22    27    1
    32    23    24   ar
    33    24    25   ar
    34    25    26   ar
    35    27    28    1
    36    27    29    2
    37    28    35    1
    38    29    36    1
    39    29    37    1
    40    33    38    1
    41     1    39    1
    42     3    40    1
    43     4    41    1
    44     6    42    1
    45     7    43    1
    46     9    44    1
    47    10    45    1
    48    12    46    1
    49    15    47    1
    50    16    48    1
    51    16    49    1
    52    16    50    1
    53    17    51    1
    54    20    52    1
    55    20    53    1
    56    21    54    1
    57    23    55    1
    58    24    56    1
    59    25    57    1
    60    28    58    1
    61    32    59    1
    62    32    60    1
    63    32    61    1
