@<TRIPOS>MOLECULE
pose8.pdb
 61 63 0 0 0
SMALL
GASTEIGER

@<TRIPOS>ATOM
      1  C1        -1.9200   24.3250   17.7440 C.2     1  LIG1       -0.0498
      2  C2        -2.9860   23.4050   17.4720 C.3     1  LIG1        0.0517
      3  C3        -4.3070   23.7460   17.9390 C.2     1  LIG1       -0.0498
      4  C4        -4.5260   24.9700   18.6530 C.2     1  LIG1        0.0304
      5  N1        -3.4970   25.8420   18.9080 N.4     1  LIG1       -0.2387
      6  C5        -2.2180   25.5220   18.4600 C.2     1  LIG1        0.0304
      7  C6        -1.2800   20.1280   16.2650 C.ar    1  LIG1       -0.0493
      8  C7        -2.2370   19.6470   15.2710 C.ar    1  LIG1        0.0367
      9  C8        -3.4170   20.4370   15.0280 C.ar    1  LIG1       -0.0493
     10  C9        -3.6560   21.6550   15.7330 C.ar    1  LIG1       -0.0567
     11  C10       -2.7280   22.1370   16.7150 C.ar    1  LIG1       -0.0321
     12  C11       -1.5470   21.3540   16.9610 C.ar    1  LIG1       -0.0567
     13  C12       -2.0750   18.4050   14.5220 C.2     1  LIG1        0.2443
     14  N2        -1.2250   17.5210   15.0800 N.am    1  LIG1       -0.3080
     15  C13       -0.9610   16.2190   14.5210 C.3     1  LIG1        0.0338
     16  C14       -0.7730   15.2360   15.6970 C.3     1  LIG1       -0.0458
     17  C15        0.2830   16.3350   13.5630 C.3     1  LIG1        0.0784
     18  C16        0.4880   15.0020   12.8190 C.2     1  LIG1        0.3120
     19  O1        -0.5370   14.7460   11.9610 O.3     1  LIG1       -0.4677
     20  C17        1.6230   16.7890   14.3020 C.3     1  LIG1       -0.0130
     21  C18        2.3830   18.1770   12.1940 C.ar    1  LIG1       -0.0438
     22  C19        3.1540   19.2670   11.5990 C.ar    1  LIG1        0.0611
     23  C20        3.9610   20.1030   12.4730 C.ar    1  LIG1       -0.0470
     24  C21        3.9950   19.8630   13.8840 C.ar    1  LIG1       -0.0607
     25  C22        3.2320   18.7860   14.4590 C.ar    1  LIG1       -0.0585
     26  C23        2.4130   17.9260   13.6360 C.ar    1  LIG1       -0.0457
     27  C24        3.1260   19.5220   10.1570 C.2     1  LIG1        0.2662
     28  N3         3.2200   20.7590    9.6610 N.pl3   1  LIG1       -0.2497
     29  N4         3.0090   18.4840    9.3100 N.2     1  LIG1       -0.2884
     30  O2         1.4160   14.2900   12.9880 O.2     1  LIG1       -0.2505
     31  O3        -2.6880   18.1700   13.4640 O.2     1  LIG1       -0.2702
     32  C25       -1.2410   13.5020   11.9610 C.3     1  LIG1        0.0817
     33  O4        -3.7030   27.0060   19.5860 O.3     1  LIG1       -0.2829
     34  H1        -0.7620   17.7760   15.9100 H       1  LIG1        0.1493
     35  H2         3.3060   21.5280   10.2700 H       1  LIG1        0.2883
     36  H3         2.9400   17.5670    9.6620 H       1  LIG1        0.3009
     37  H4         2.9930   18.6410    8.3380 H       1  LIG1        0.3009
     38  H5        -4.6490   27.2200   19.5810 H       1  LIG1        0.2448
     39 H          -0.9580   24.1252   17.4284 H       1  LIG1        0.0600
     40 H          -5.0972   23.1071   17.7588 H       1  LIG1        0.0600
     41 H          -5.4767   25.2001   18.9819 H       1  LIG1        0.0831
     42 H          -1.4493   26.1822   18.6553 H       1  LIG1        0.0831
     43 H          -0.4212   19.5916   16.4643 H       1  LIG1        0.0625
     44 H          -4.1046   20.1153   14.3289 H       1  LIG1        0.0625
     45 H          -4.5106   22.1978   15.5329 H       1  LIG1        0.0621
     46 H          -0.8673   21.6858   17.6632 H       1  LIG1        0.0621
     47 H          -1.7654   15.8432   13.9239 H       1  LIG1        0.0504
     48 H           0.0260   15.5763   16.3220 H       1  LIG1        0.0248
     49 H          -0.5384   14.2642   15.3155 H       1  LIG1        0.0248
     50 H          -1.6764   15.1864   16.2683 H       1  LIG1        0.0248
     51 H           0.0658   17.1142   12.8626 H       1  LIG1        0.0435
     52 H           2.2668   15.9366   14.3635 H       1  LIG1        0.0322
     53 H           1.3107   17.1744   15.2501 H       1  LIG1        0.0322
     54 H           1.8070   17.5734   11.5866 H       1  LIG1        0.0629
     55 H           4.5144   20.8766   12.0725 H       1  LIG1        0.0626
     56 H           4.5702   20.4659   14.4929 H       1  LIG1        0.0618
     57 H           3.2707   18.6253   15.4777 H       1  LIG1        0.0620
     58 H           3.2033   20.9016    8.6870 H       1  LIG1        0.2883
     59 H          -2.0014   13.5225   11.2085 H       1  LIG1        0.0661
     60 H          -1.6915   13.3471   12.9191 H       1  LIG1        0.0661
     61 H          -0.5571   12.7052   11.7555 H       1  LIG1        0.0661
@<TRIPOS>BOND
     1     1     2    1
     2     1     6    2
     3     2     3    1
     4     2    11    1
     5     3     4    2
     6     4     5    1
     7     5     6    1
     8     5    33    1
     9     7     8   ar
    10     7    12   ar
    11     8     9   ar
    12     8    13    1
    13     9    10   ar
    14    10    11   ar
    15    11    12   ar
    16    13    14   am
    17    13    31    2
    18    14    15    1
    19    14    34    1
    20    15    16    1
    21    15    17    1
    22    17    18    1
    23    17    20    1
    24    18    19    1
    25    18    30    2
    26    19    32    1
    27    20    26    1
    28    21    22   ar
    29    21    26   ar
    30    22    23   ar
    31    22    27    1
    32    23    24   ar
    33    24    25   ar
    34    25    26   ar
    35    27    28    1
    36    27    29    2
    37    28    35    1
    38    29    36    1
    39    29    37    1
    40    33    38    1
    41     1    39    1
    42     3    40    1
    43     4    41    1
    44     6    42    1
    45     7    43    1
    46     9    44    1
    47    10    45    1
    48    12    46    1
    49    15    47    1
    50    16    48    1
    51    16    49    1
    52    16    50    1
    53    17    51    1
    54    20    52    1
    55    20    53    1
    56    21    54    1
    57    23    55    1
    58    24    56    1
    59    25    57    1
    60    28    58    1
    61    32    59    1
    62    32    60    1
    63    32    61    1
