REMARK  7 active torsions:
REMARK  status: ('A' for Active; 'I' for Inactive)
REMARK    1  A    between atoms: O13_4  and  C10_17 
REMARK    2  A    between atoms: O13_4  and  C14_20 
REMARK    3  A    between atoms: N16_7  and  C15_21 
REMARK    4  A    between atoms: N16_7  and  C17_23 
REMARK    5  A    between atoms: C5_12  and  C6_13 
REMARK    6  A    between atoms: C6_13  and  C7_14 
REMARK    7  A    between atoms: C14_20  and  C15_21 
ROOT
HETATM    1  C7  BRL A   1      10.678  -3.139   9.634  1.00 49.32    -0.078 A 
HETATM    2  C8  BRL A   1       9.392  -3.744   9.959  1.00 47.70     0.063 A 
HETATM    3  C9  BRL A   1       9.317  -4.732  10.986  1.00 48.79     0.010 A 
HETATM    4  C10 BRL A   1      10.499  -5.129  11.719  1.00 52.03     0.046 A 
HETATM    5  C11 BRL A   1      11.768  -4.452  11.436  1.00 49.87     0.091 A 
HETATM    6  C12 BRL A   1      11.858  -3.468  10.401  1.00 46.23    -0.017 A 
ENDROOT
BRANCH   4   7
HETATM    7  O13 BRL A   1      10.208  -6.143  12.648  1.00 55.24    -0.354 OA
BRANCH   7   8
HETATM    8  C14 BRL A   1      10.408  -7.601  12.623  1.00 58.92     0.195 C 
BRANCH   8   9
HETATM    9  C15 BRL A   1      11.447  -7.801  11.500  1.00 57.91     0.150 C 
BRANCH   9  10
HETATM   10  N16 BRL A   1      12.555  -8.843  11.656  1.00 62.73    -0.373 N 
HETATM   11  C16 BRL A   1      11.916 -10.237  11.576  1.00 66.67     0.150 C 
BRANCH  10  12
HETATM   12  C17 BRL A   1      14.090  -8.566  11.987  1.00 58.83     0.082 A 
HETATM   13  N18 BRL A   1      14.546  -7.300  12.331  1.00 56.96    -0.356 N 
HETATM   14  C19 BRL A   1      15.835  -7.004  12.648  1.00 58.44     0.089 A 
ATOM     15  H18 BRL A   1      13.867  -6.539  12.346  1.00  0.00     0.166 HD
HETATM   16  C20 BRL A   1      16.851  -8.035  12.641  1.00 56.70     0.013 A 
HETATM   17  C21 BRL A   1      16.472  -9.371  12.292  1.00 56.41    -0.018 A 
HETATM   18  C22 BRL A   1      15.101  -9.643  11.964  1.00 57.64     0.103 A 
ENDBRANCH  10  12
ENDBRANCH   9  10
ENDBRANCH   8   9
ENDBRANCH   7   8
ENDBRANCH   4   7
BRANCH   1  19
HETATM   19  C6  BRL A   1      10.861  -2.178   8.476  1.00 49.65     0.059 C 
BRANCH  19  20
HETATM   20  C5  BRL A   1       9.957  -2.371   7.185  1.00 51.51     0.153 A 
HETATM   21  S1  BRL A   1      10.732  -3.451   5.897  1.00 50.57    -0.054 SA
HETATM   22  C2  BRL A   1      10.472  -2.074   4.745  1.00 50.68     0.287 A 
HETATM   23  O2  BRL A   1      10.855  -2.129   3.577  1.00 52.47    -0.260 OA
HETATM   24  N3  BRL A   1       9.869  -0.990   5.207  1.00 50.49    -0.287 N 
HETATM   25  C4  BRL A   1       9.520  -1.069   6.498  1.00 50.41     0.239 A 
ATOM     26  H3  BRL A   1       9.686  -0.168   4.630  1.00  0.00     0.172 HD
HETATM   27  O4  BRL A   1       8.870  -0.188   7.084  1.00 50.76    -0.272 OA
ENDBRANCH  19  20
ENDBRANCH   1  19
TORSDOF 7
