REMARK  7 active torsions:
REMARK  status: ('A' for Active; 'I' for Inactive)
REMARK    1  A    between atoms: O13_4  and  C10_17 
REMARK    2  A    between atoms: O13_4  and  C14_20 
REMARK    3  A    between atoms: N16_7  and  C15_21 
REMARK    4  A    between atoms: N16_7  and  C17_23 
REMARK    5  A    between atoms: C5_12  and  C6_13 
REMARK    6  A    between atoms: C6_13  and  C7_14 
REMARK    7  A    between atoms: C14_20  and  C15_21 
ROOT
HETATM    1  C7  BRL A   1      11.487  -3.301  10.788  1.00 49.32    -0.078 A 
HETATM    2  C8  BRL A   1      12.322  -2.963   9.640  1.00 47.70     0.063 A 
HETATM    3  C9  BRL A   1      11.809  -3.136   8.320  1.00 48.79     0.010 A 
HETATM    4  C10 BRL A   1      10.466  -3.627   8.106  1.00 52.03     0.046 A 
HETATM    5  C11 BRL A   1       9.612  -3.883   9.270  1.00 49.87     0.091 A 
HETATM    6  C12 BRL A   1      10.119  -3.725  10.599  1.00 46.23    -0.017 A 
ENDROOT
BRANCH   4   7
HETATM    7  O13 BRL A   1      10.183  -3.763   6.736  1.00 55.24    -0.354 OA
BRANCH   7   8
HETATM    8  C14 BRL A   1       9.010  -4.275   6.010  1.00 58.92     0.195 C 
BRANCH   8   9
HETATM    9  C15 BRL A   1       9.540  -5.554   5.330  1.00 57.91     0.150 C 
BRANCH   9  10
HETATM   10  N16 BRL A   1      10.094  -5.494   3.906  1.00 62.73    -0.373 N 
HETATM   11  C16 BRL A   1       9.728  -6.805   3.195  1.00 66.67     0.150 C 
BRANCH  10  12
HETATM   12  C17 BRL A   1      11.015  -4.350   3.285  1.00 58.83     0.082 A 
HETATM   13  N18 BRL A   1      11.189  -3.128   3.919  1.00 56.96    -0.356 N 
HETATM   14  C19 BRL A   1      11.980  -2.123   3.455  1.00 58.44     0.089 A 
ATOM     15  H18 BRL A   1      10.689  -2.972   4.795  1.00  0.00     0.166 HD
HETATM   16  C20 BRL A   1      12.712  -2.275   2.217  1.00 56.70     0.013 A 
HETATM   17  C21 BRL A   1      12.588  -3.502   1.490  1.00 56.41    -0.018 A 
HETATM   18  C22 BRL A   1      11.743  -4.539   2.013  1.00 57.64     0.103 A 
ENDBRANCH  10  12
ENDBRANCH   9  10
ENDBRANCH   8   9
ENDBRANCH   7   8
ENDBRANCH   4   7
BRANCH   1  19
HETATM   19  C6  BRL A   1      12.003  -3.265  12.213  1.00 49.65     0.059 C 
BRANCH  19  20
HETATM   20  C5  BRL A   1      12.435  -4.632  12.894  1.00 51.51     0.153 A 
HETATM   21  S1  BRL A   1      14.189  -4.639  13.485  1.00 50.57    -0.054 SA
HETATM   22  C2  BRL A   1      14.405  -6.136  12.483  1.00 50.68     0.287 A 
HETATM   23  O2  BRL A   1      15.496  -6.695  12.387  1.00 52.47    -0.260 OA
HETATM   24  N3  BRL A   1      13.348  -6.602  11.837  1.00 50.49    -0.287 N 
HETATM   25  C4  BRL A   1      12.233  -5.882  12.026  1.00 50.41     0.239 A 
ATOM     26  H3  BRL A   1      13.379  -7.434  11.248  1.00  0.00     0.172 HD
HETATM   27  O4  BRL A   1      11.124  -6.211  11.572  1.00 50.76    -0.272 OA
ENDBRANCH  19  20
ENDBRANCH   1  19
TORSDOF 7
