REMARK  7 active torsions:
REMARK  status: ('A' for Active; 'I' for Inactive)
REMARK    1  A    between atoms: O13_4  and  C10_17 
REMARK    2  A    between atoms: O13_4  and  C14_20 
REMARK    3  A    between atoms: N16_7  and  C15_21 
REMARK    4  A    between atoms: N16_7  and  C17_23 
REMARK    5  A    between atoms: C5_12  and  C6_13 
REMARK    6  A    between atoms: C6_13  and  C7_14 
REMARK    7  A    between atoms: C14_20  and  C15_21 
ROOT
HETATM    1  C7  BRL A   1      15.434  -9.069  11.849  1.00 49.32    -0.078 A 
HETATM    2  C8  BRL A   1      14.684  -9.763  12.889  1.00 47.70     0.063 A 
HETATM    3  C9  BRL A   1      13.474 -10.442  12.551  1.00 48.79     0.010 A 
HETATM    4  C10 BRL A   1      12.992 -10.461  11.188  1.00 52.03     0.046 A 
HETATM    5  C11 BRL A   1      13.801  -9.829  10.142  1.00 49.87     0.091 A 
HETATM    6  C12 BRL A   1      15.009  -9.136  10.469  1.00 46.23    -0.017 A 
ENDROOT
BRANCH   4   7
HETATM    7  O13 BRL A   1      11.767 -11.143  11.089  1.00 55.24    -0.354 OA
BRANCH   7   8
HETATM    8  C14 BRL A   1      11.063 -11.762   9.954  1.00 58.92     0.195 C 
BRANCH   8   9
HETATM    9  C15 BRL A   1      10.215 -10.605   9.385  1.00 57.91     0.150 C 
BRANCH   9  10
HETATM   10  N16 BRL A   1       9.380  -9.733  10.321  1.00 62.73    -0.373 N 
HETATM   11  C16 BRL A   1       7.905 -10.127  10.154  1.00 66.67     0.150 C 
BRANCH  10  12
HETATM   12  C17 BRL A   1       9.900  -8.523  11.220  1.00 58.83     0.082 A 
HETATM   13  N18 BRL A   1      11.249  -8.209  11.314  1.00 56.96    -0.356 N 
HETATM   14  C19 BRL A   1      11.753  -7.177  12.042  1.00 58.44     0.089 A 
ATOM     15  H18 BRL A   1      11.909  -8.795  10.802  1.00  0.00     0.166 HD
HETATM   16  C20 BRL A   1      10.874  -6.310  12.797  1.00 56.70     0.013 A 
HETATM   17  C21 BRL A   1       9.465  -6.562  12.765  1.00 56.41    -0.018 A 
HETATM   18  C22 BRL A   1       8.972  -7.662  11.985  1.00 57.64     0.103 A 
ENDBRANCH  10  12
ENDBRANCH   9  10
ENDBRANCH   8   9
ENDBRANCH   7   8
ENDBRANCH   4   7
BRANCH   1  19
HETATM   19  C6  BRL A   1      16.656  -8.223  12.149  1.00 49.65     0.059 C 
BRANCH  19  20
HETATM   20  C5  BRL A   1      16.485  -6.646  12.213  1.00 51.51     0.153 A 
HETATM   21  S1  BRL A   1      17.199  -5.890  13.745  1.00 50.57    -0.054 SA
HETATM   22  C2  BRL A   1      15.562  -5.155  14.011  1.00 50.68     0.287 A 
HETATM   23  O2  BRL A   1      15.313  -4.480  15.010  1.00 52.47    -0.260 OA
HETATM   24  N3  BRL A   1      14.629  -5.383  13.101  1.00 50.49    -0.287 N 
HETATM   25  C4  BRL A   1      15.041  -6.144  12.078  1.00 50.41     0.239 A 
ATOM     26  H3  BRL A   1      13.680  -5.013  13.172  1.00  0.00     0.172 HD
HETATM   27  O4  BRL A   1      14.335  -6.394  11.087  1.00 50.76    -0.272 OA
ENDBRANCH  19  20
ENDBRANCH   1  19
TORSDOF 7
