REMARK  7 active torsions:
REMARK  status: ('A' for Active; 'I' for Inactive)
REMARK    1  A    between atoms: O13_4  and  C10_17 
REMARK    2  A    between atoms: O13_4  and  C14_20 
REMARK    3  A    between atoms: N16_7  and  C15_21 
REMARK    4  A    between atoms: N16_7  and  C17_23 
REMARK    5  A    between atoms: C5_12  and  C6_13 
REMARK    6  A    between atoms: C6_13  and  C7_14 
REMARK    7  A    between atoms: C14_20  and  C15_21 
ROOT
HETATM    1  C7  BRL A   1      11.786  -8.468  11.624  1.00 49.32    -0.078 A 
HETATM    2  C8  BRL A   1      13.147  -7.945  11.627  1.00 47.70     0.063 A 
HETATM    3  C9  BRL A   1      13.376  -6.576  11.960  1.00 48.79     0.010 A 
HETATM    4  C10 BRL A   1      12.275  -5.706  12.309  1.00 52.03     0.046 A 
HETATM    5  C11 BRL A   1      10.923  -6.268  12.381  1.00 49.87     0.091 A 
HETATM    6  C12 BRL A   1      10.680  -7.636  12.038  1.00 46.23    -0.017 A 
ENDROOT
BRANCH   4   7
HETATM    7  O13 BRL A   1      12.718  -4.395  12.556  1.00 55.24    -0.354 OA
BRANCH   7   8
HETATM    8  C14 BRL A   1      12.074  -3.082  12.394  1.00 58.92     0.195 C 
BRANCH   8   9
HETATM    9  C15 BRL A   1      11.183  -3.271  11.149  1.00 57.91     0.150 C 
BRANCH   9  10
HETATM   10  N16 BRL A   1      11.478  -2.492   9.867  1.00 62.73    -0.373 N 
HETATM   11  C16 BRL A   1      12.721  -1.624  10.111  1.00 66.67     0.150 C 
BRANCH  10  12
HETATM   12  C17 BRL A   1      10.591  -2.455   8.543  1.00 58.83     0.082 A 
HETATM   13  N18 BRL A   1      10.442  -1.295   7.795  1.00 56.96    -0.356 N 
HETATM   14  C19 BRL A   1       9.721  -1.205   6.645  1.00 58.44     0.089 A 
ATOM     15  H18 BRL A   1      10.906  -0.451   8.131  1.00  0.00     0.166 HD
HETATM   16  C20 BRL A   1       9.033  -2.362   6.115  1.00 56.70     0.013 A 
HETATM   17  C21 BRL A   1       9.124  -3.602   6.825  1.00 56.41    -0.018 A 
HETATM   18  C22 BRL A   1       9.896  -3.657   8.035  1.00 57.64     0.103 A 
ENDBRANCH  10  12
ENDBRANCH   9  10
ENDBRANCH   8   9
ENDBRANCH   7   8
ENDBRANCH   4   7
BRANCH   1  19
HETATM   19  C6  BRL A   1      11.451  -9.872  11.160  1.00 49.65     0.059 C 
BRANCH  19  20
HETATM   20  C5  BRL A   1      10.388 -10.049   9.994  1.00 51.51     0.153 A 
HETATM   21  S1  BRL A   1       8.705  -9.413  10.427  1.00 50.57    -0.054 SA
HETATM   22  C2  BRL A   1       8.090 -11.062   9.989  1.00 50.68     0.287 A 
HETATM   23  O2  BRL A   1       6.903 -11.362  10.111  1.00 52.47    -0.260 OA
HETATM   24  N3  BRL A   1       8.968 -11.950   9.547  1.00 50.49    -0.287 N 
HETATM   25  C4  BRL A   1      10.223 -11.486   9.479  1.00 50.41     0.239 A 
ATOM     26  H3  BRL A   1       8.711 -12.901   9.282  1.00  0.00     0.172 HD
HETATM   27  O4  BRL A   1      11.168 -12.141   9.009  1.00 50.76    -0.272 OA
ENDBRANCH  19  20
ENDBRANCH   1  19
TORSDOF 7
