REMARK  7 active torsions:
REMARK  status: ('A' for Active; 'I' for Inactive)
REMARK    1  A    between atoms: O13_4  and  C10_17 
REMARK    2  A    between atoms: O13_4  and  C14_20 
REMARK    3  A    between atoms: N16_7  and  C15_21 
REMARK    4  A    between atoms: N16_7  and  C17_23 
REMARK    5  A    between atoms: C5_12  and  C6_13 
REMARK    6  A    between atoms: C6_13  and  C7_14 
REMARK    7  A    between atoms: C14_20  and  C15_21 
ROOT
HETATM    1  C7  BRL A   1      10.206  -3.489   8.098  1.00 49.32    -0.078 A 
HETATM    2  C8  BRL A   1       9.321  -3.795   9.215  1.00 47.70     0.063 A 
HETATM    3  C9  BRL A   1       9.858  -3.895  10.534  1.00 48.79     0.010 A 
HETATM    4  C10 BRL A   1      11.267  -3.681  10.777  1.00 52.03     0.046 A 
HETATM    5  C11 BRL A   1      12.128  -3.293   9.655  1.00 49.87     0.091 A 
HETATM    6  C12 BRL A   1      11.604  -3.202   8.327  1.00 46.23    -0.017 A 
ENDROOT
BRANCH   4   7
HETATM    7  O13 BRL A   1      11.588  -3.871  12.132  1.00 55.24    -0.354 OA
BRANCH   7   8
HETATM    8  C14 BRL A   1      11.672  -5.075  12.974  1.00 58.92     0.195 C 
BRANCH   8   9
HETATM    9  C15 BRL A   1      11.751  -6.225  11.947  1.00 57.91     0.150 C 
BRANCH   9  10
HETATM   10  N16 BRL A   1      10.629  -7.259  11.864  1.00 62.73    -0.373 N 
HETATM   11  C16 BRL A   1       9.399  -6.690  12.587  1.00 66.67     0.150 C 
BRANCH  10  12
HETATM   12  C17 BRL A   1      10.728  -8.734  11.266  1.00 58.83     0.082 A 
HETATM   13  N18 BRL A   1       9.686  -9.302  10.546  1.00 56.96    -0.356 N 
HETATM   14  C19 BRL A   1       9.719 -10.543   9.990  1.00 58.44     0.089 A 
ATOM     15  H18 BRL A   1       8.836  -8.750  10.426  1.00  0.00     0.166 HD
HETATM   16  C20 BRL A   1      10.890 -11.381  10.127  1.00 56.70     0.013 A 
HETATM   17  C21 BRL A   1      12.013 -10.879  10.860  1.00 56.41    -0.018 A 
HETATM   18  C22 BRL A   1      11.940  -9.564  11.432  1.00 57.64     0.103 A 
ENDBRANCH  10  12
ENDBRANCH   9  10
ENDBRANCH   8   9
ENDBRANCH   7   8
ENDBRANCH   4   7
BRANCH   1  19
HETATM   19  C6  BRL A   1       9.735  -3.491   6.657  1.00 49.65     0.059 C 
BRANCH  19  20
HETATM   20  C5  BRL A   1      10.539  -4.361   5.600  1.00 51.51     0.153 A 
HETATM   21  S1  BRL A   1      11.356  -3.349   4.283  1.00 50.57    -0.054 SA
HETATM   22  C2  BRL A   1      10.473  -4.391   3.090  1.00 50.68     0.287 A 
HETATM   23  O2  BRL A   1      10.551  -4.193   1.878  1.00 52.47    -0.260 OA
HETATM   24  N3  BRL A   1       9.719  -5.370   3.566  1.00 50.49    -0.287 N 
HETATM   25  C4  BRL A   1       9.721  -5.456   4.903  1.00 50.41     0.239 A 
ATOM     26  H3  BRL A   1       9.184  -6.001   2.968  1.00  0.00     0.172 HD
HETATM   27  O4  BRL A   1       9.143  -6.361   5.528  1.00 50.76    -0.272 OA
ENDBRANCH  19  20
ENDBRANCH   1  19
TORSDOF 7
