REMARK  7 active torsions:
REMARK  status: ('A' for Active; 'I' for Inactive)
REMARK    1  A    between atoms: O13_4  and  C10_17 
REMARK    2  A    between atoms: O13_4  and  C14_20 
REMARK    3  A    between atoms: N16_7  and  C15_21 
REMARK    4  A    between atoms: N16_7  and  C17_23 
REMARK    5  A    between atoms: C5_12  and  C6_13 
REMARK    6  A    between atoms: C6_13  and  C7_14 
REMARK    7  A    between atoms: C14_20  and  C15_21 
ROOT
HETATM    1  C7  BRL A   1      10.598  -2.748   8.211  1.00 49.32    -0.078 A 
HETATM    2  C8  BRL A   1       9.577  -3.464   8.968  1.00 47.70     0.063 A 
HETATM    3  C9  BRL A   1       9.959  -4.258  10.091  1.00 48.79     0.010 A 
HETATM    4  C10 BRL A   1      11.343  -4.348  10.497  1.00 52.03     0.046 A 
HETATM    5  C11 BRL A   1      12.346  -3.557   9.777  1.00 49.87     0.091 A 
HETATM    6  C12 BRL A   1      11.977  -2.767   8.642  1.00 46.23    -0.017 A 
ENDROOT
BRANCH   4   7
HETATM    7  O13 BRL A   1      11.500  -5.214  11.593  1.00 55.24    -0.354 OA
BRANCH   7   8
HETATM    8  C14 BRL A   1      10.766  -5.355  12.861  1.00 58.92     0.195 C 
BRANCH   8   9
HETATM    9  C15 BRL A   1       9.996  -6.681  12.684  1.00 57.91     0.150 C 
BRANCH   9  10
HETATM   10  N16 BRL A   1      10.550  -7.773  11.770  1.00 62.73    -0.373 N 
HETATM   11  C16 BRL A   1       9.378  -8.379  10.984  1.00 66.67     0.150 C 
BRANCH  10  12
HETATM   12  C17 BRL A   1      12.050  -8.311  11.721  1.00 58.83     0.082 A 
HETATM   13  N18 BRL A   1      13.134  -7.448  11.636  1.00 56.96    -0.356 N 
HETATM   14  C19 BRL A   1      14.435  -7.842  11.616  1.00 58.44     0.089 A 
ATOM     15  H18 BRL A   1      12.940  -6.447  11.585  1.00  0.00     0.166 HD
HETATM   16  C20 BRL A   1      14.781  -9.246  11.679  1.00 56.70     0.013 A 
HETATM   17  C21 BRL A   1      13.726 -10.211  11.761  1.00 56.41    -0.018 A 
HETATM   18  C22 BRL A   1      12.365  -9.755  11.780  1.00 57.64     0.103 A 
ENDBRANCH  10  12
ENDBRANCH   9  10
ENDBRANCH   8   9
ENDBRANCH   7   8
ENDBRANCH   4   7
BRANCH   1  19
HETATM   19  C6  BRL A   1      10.289  -1.990   6.936  1.00 49.65     0.059 C 
BRANCH  19  20
HETATM   20  C5  BRL A   1       9.666  -2.789   5.714  1.00 51.51     0.153 A 
HETATM   21  S1  BRL A   1       9.276  -4.554   6.110  1.00 50.57    -0.054 SA
HETATM   22  C2  BRL A   1      10.302  -4.987   4.679  1.00 50.68     0.287 A 
HETATM   23  O2  BRL A   1      10.523  -6.159   4.374  1.00 52.47    -0.260 OA
HETATM   24  N3  BRL A   1      10.828  -3.997   3.975  1.00 50.49    -0.287 N 
HETATM   25  C4  BRL A   1      10.512  -2.777   4.433  1.00 50.41     0.239 A 
ATOM     26  H3  BRL A   1      11.421  -4.148   3.159  1.00  0.00     0.172 HD
HETATM   27  O4  BRL A   1      10.840  -1.727   3.856  1.00 50.76    -0.272 OA
ENDBRANCH  19  20
ENDBRANCH   1  19
TORSDOF 7
