REMARK  7 active torsions:
REMARK  status: ('A' for Active; 'I' for Inactive)
REMARK    1  A    between atoms: O13_4  and  C10_17 
REMARK    2  A    between atoms: O13_4  and  C14_20 
REMARK    3  A    between atoms: N16_7  and  C15_21 
REMARK    4  A    between atoms: N16_7  and  C17_23 
REMARK    5  A    between atoms: C5_12  and  C6_13 
REMARK    6  A    between atoms: C6_13  and  C7_14 
REMARK    7  A    between atoms: C14_20  and  C15_21 
ROOT
HETATM    1  C7  BRL A   1      10.889  -3.344   9.631  1.00 49.32    -0.078 A 
HETATM    2  C8  BRL A   1       9.731  -4.103  10.088  1.00 47.70     0.063 A 
HETATM    3  C9  BRL A   1       9.901  -5.127  11.068  1.00 48.79     0.010 A 
HETATM    4  C10 BRL A   1      11.205  -5.410  11.625  1.00 52.03     0.046 A 
HETATM    5  C11 BRL A   1      12.344  -4.583  11.215  1.00 49.87     0.091 A 
HETATM    6  C12 BRL A   1      12.189  -3.562  10.225  1.00 46.23    -0.017 A 
ENDROOT
BRANCH   4   7
HETATM    7  O13 BRL A   1      11.152  -6.480  12.534  1.00 55.24    -0.354 OA
BRANCH   7   8
HETATM    8  C14 BRL A   1      10.222  -7.611  12.685  1.00 58.92     0.195 C 
BRANCH   8   9
HETATM    9  C15 BRL A   1      10.413  -8.409  11.379  1.00 57.91     0.150 C 
BRANCH   9  10
HETATM   10  N16 BRL A   1      11.672  -9.252  11.171  1.00 62.73    -0.373 N 
HETATM   11  C16 BRL A   1      11.243 -10.716  10.993  1.00 66.67     0.150 C 
BRANCH  10  12
HETATM   12  C17 BRL A   1      13.183  -8.753  11.260  1.00 58.83     0.082 A 
HETATM   13  N18 BRL A   1      13.536  -7.611  11.968  1.00 56.96    -0.356 N 
HETATM   14  C19 BRL A   1      14.807  -7.148  12.102  1.00 58.44     0.089 A 
ATOM     15  H18 BRL A   1      12.788  -7.083  12.418  1.00  0.00     0.166 HD
HETATM   16  C20 BRL A   1      15.914  -7.846  11.485  1.00 56.70     0.013 A 
HETATM   17  C21 BRL A   1      15.645  -9.031  10.728  1.00 56.41    -0.018 A 
HETATM   18  C22 BRL A   1      14.289  -9.488  10.610  1.00 57.64     0.103 A 
ENDBRANCH  10  12
ENDBRANCH   9  10
ENDBRANCH   8   9
ENDBRANCH   7   8
ENDBRANCH   4   7
BRANCH   1  19
HETATM   19  C6  BRL A   1      10.811  -2.331   8.506  1.00 49.65     0.059 C 
BRANCH  19  20
HETATM   20  C5  BRL A   1      10.041  -2.736   7.178  1.00 51.51     0.153 A 
HETATM   21  S1  BRL A   1      11.147  -3.432   5.868  1.00 50.57    -0.054 SA
HETATM   22  C2  BRL A   1      10.471  -2.153   4.774  1.00 50.68     0.287 A 
HETATM   23  O2  BRL A   1      10.870  -2.015   3.618  1.00 52.47    -0.260 OA
HETATM   24  N3  BRL A   1       9.539  -1.350   5.265  1.00 50.49    -0.287 N 
HETATM   25  C4  BRL A   1       9.215  -1.611   6.539  1.00 50.41     0.239 A 
ATOM     26  H3  BRL A   1       9.107  -0.602   4.723  1.00  0.00     0.172 HD
HETATM   27  O4  BRL A   1       8.303  -1.022   7.144  1.00 50.76    -0.272 OA
ENDBRANCH  19  20
ENDBRANCH   1  19
TORSDOF 7
