REMARK  7 active torsions:
REMARK  status: ('A' for Active; 'I' for Inactive)
REMARK    1  A    between atoms: O13_4  and  C10_17 
REMARK    2  A    between atoms: O13_4  and  C14_20 
REMARK    3  A    between atoms: N16_7  and  C15_21 
REMARK    4  A    between atoms: N16_7  and  C17_23 
REMARK    5  A    between atoms: C5_12  and  C6_13 
REMARK    6  A    between atoms: C6_13  and  C7_14 
REMARK    7  A    between atoms: C14_20  and  C15_21 
ROOT
HETATM    1  C7  BRL A   1      10.614  -2.821   8.287  1.00 49.32    -0.078 A 
HETATM    2  C8  BRL A   1       9.569  -3.519   9.027  1.00 47.70     0.063 A 
HETATM    3  C9  BRL A   1       9.921  -4.339  10.140  1.00 48.79     0.010 A 
HETATM    4  C10 BRL A   1      11.300  -4.475  10.552  1.00 52.03     0.046 A 
HETATM    5  C11 BRL A   1      12.329  -3.702   9.850  1.00 49.87     0.091 A 
HETATM    6  C12 BRL A   1      11.990  -2.885   8.725  1.00 46.23    -0.017 A 
ENDROOT
BRANCH   4   7
HETATM    7  O13 BRL A   1      11.426  -5.361  11.636  1.00 55.24    -0.354 OA
BRANCH   7   8
HETATM    8  C14 BRL A   1      10.467  -5.838  12.646  1.00 58.92     0.195 C 
BRANCH   8   9
HETATM    9  C15 BRL A   1       9.704  -6.962  11.913  1.00 57.91     0.150 C 
BRANCH   9  10
HETATM   10  N16 BRL A   1      10.456  -8.186  11.392  1.00 62.73    -0.373 N 
HETATM   11  C16 BRL A   1       9.444  -9.109  10.698  1.00 66.67     0.150 C 
BRANCH  10  12
HETATM   12  C17 BRL A   1      11.992  -8.541  11.634  1.00 58.83     0.082 A 
HETATM   13  N18 BRL A   1      12.977  -7.562  11.637  1.00 56.96    -0.356 N 
HETATM   14  C19 BRL A   1      14.297  -7.797  11.862  1.00 58.44     0.089 A 
ATOM     15  H18 BRL A   1      12.689  -6.600  11.459  1.00  0.00     0.166 HD
HETATM   16  C20 BRL A   1      14.774  -9.139  12.116  1.00 56.70     0.013 A 
HETATM   17  C21 BRL A   1      13.829 -10.215  12.124  1.00 56.41    -0.018 A 
HETATM   18  C22 BRL A   1      12.444  -9.927  11.883  1.00 57.64     0.103 A 
ENDBRANCH  10  12
ENDBRANCH   9  10
ENDBRANCH   8   9
ENDBRANCH   7   8
ENDBRANCH   4   7
BRANCH   1  19
HETATM   19  C6  BRL A   1      10.334  -2.035   7.021  1.00 49.65     0.059 C 
BRANCH  19  20
HETATM   20  C5  BRL A   1       9.683  -2.795   5.789  1.00 51.51     0.153 A 
HETATM   21  S1  BRL A   1       9.276  -4.565   6.146  1.00 50.57    -0.054 SA
HETATM   22  C2  BRL A   1      10.275  -4.974   4.689  1.00 50.68     0.287 A 
HETATM   23  O2  BRL A   1      10.476  -6.140   4.351  1.00 52.47    -0.260 OA
HETATM   24  N3  BRL A   1      10.803  -3.973   4.003  1.00 50.49    -0.287 N 
HETATM   25  C4  BRL A   1      10.510  -2.761   4.495  1.00 50.41     0.239 A 
ATOM     26  H3  BRL A   1      11.382  -4.111   3.174  1.00  0.00     0.172 HD
HETATM   27  O4  BRL A   1      10.843  -1.701   3.941  1.00 50.76    -0.272 OA
ENDBRANCH  19  20
ENDBRANCH   1  19
TORSDOF 7
