REMARK  7 active torsions:
REMARK  status: ('A' for Active; 'I' for Inactive)
REMARK    1  A    between atoms: O13_4  and  C10_17 
REMARK    2  A    between atoms: O13_4  and  C14_20 
REMARK    3  A    between atoms: N16_7  and  C15_21 
REMARK    4  A    between atoms: N16_7  and  C17_23 
REMARK    5  A    between atoms: C5_12  and  C6_13 
REMARK    6  A    between atoms: C6_13  and  C7_14 
REMARK    7  A    between atoms: C14_20  and  C15_21 
ROOT
HETATM    1  C7  BRL A   1      11.666  -3.652  11.278  1.00 49.32    -0.078 A 
HETATM    2  C8  BRL A   1      12.283  -3.196  10.038  1.00 47.70     0.063 A 
HETATM    3  C9  BRL A   1      11.504  -3.138   8.843  1.00 48.79     0.010 A 
HETATM    4  C10 BRL A   1      10.107  -3.510   8.852  1.00 52.03     0.046 A 
HETATM    5  C11 BRL A   1       9.482  -3.886  10.123  1.00 49.87     0.091 A 
HETATM    6  C12 BRL A   1      10.255  -3.960  11.325  1.00 46.23    -0.017 A 
ENDROOT
BRANCH   4   7
HETATM    7  O13 BRL A   1       9.546  -3.421   7.566  1.00 55.24    -0.354 OA
BRANCH   7   8
HETATM    8  C14 BRL A   1       9.507  -4.359   6.432  1.00 58.92     0.195 C 
BRANCH   8   9
HETATM    9  C15 BRL A   1      10.826  -4.072   5.684  1.00 57.91     0.150 C 
BRANCH   9  10
HETATM   10  N16 BRL A   1      10.893  -4.214   4.163  1.00 62.73    -0.373 N 
HETATM   11  C16 BRL A   1      11.223  -2.837   3.569  1.00 66.67     0.150 C 
BRANCH  10  12
HETATM   12  C17 BRL A   1      10.546  -5.513   3.307  1.00 58.83     0.082 A 
HETATM   13  N18 BRL A   1      10.762  -5.565   1.936  1.00 56.96    -0.356 N 
HETATM   14  C19 BRL A   1      10.511  -6.649   1.156  1.00 58.44     0.089 A 
ATOM     15  H18 BRL A   1      11.136  -4.730   1.484  1.00  0.00     0.166 HD
HETATM   16  C20 BRL A   1       9.975  -7.863   1.731  1.00 56.70     0.013 A 
HETATM   17  C21 BRL A   1       9.713  -7.900   3.139  1.00 56.41    -0.018 A 
HETATM   18  C22 BRL A   1       9.992  -6.734   3.929  1.00 57.64     0.103 A 
ENDBRANCH  10  12
ENDBRANCH   9  10
ENDBRANCH   8   9
ENDBRANCH   7   8
ENDBRANCH   4   7
BRANCH   1  19
HETATM   19  C6  BRL A   1      12.456  -3.861  12.555  1.00 49.65     0.059 C 
BRANCH  19  20
HETATM   20  C5  BRL A   1      12.818  -5.346  12.984  1.00 51.51     0.153 A 
HETATM   21  S1  BRL A   1      14.605  -5.767  12.746  1.00 50.57    -0.054 SA
HETATM   22  C2  BRL A   1      14.028  -7.174  11.758  1.00 50.68     0.287 A 
HETATM   23  O2  BRL A   1      14.816  -7.933  11.195  1.00 52.47    -0.260 OA
HETATM   24  N3  BRL A   1      12.721  -7.351  11.642  1.00 50.49    -0.287 N 
HETATM   25  C4  BRL A   1      11.988  -6.440  12.298  1.00 50.41     0.239 A 
ATOM     26  H3  BRL A   1      12.309  -8.113  11.103  1.00  0.00     0.172 HD
HETATM   27  O4  BRL A   1      10.750  -6.491  12.378  1.00 50.76    -0.272 OA
ENDBRANCH  19  20
ENDBRANCH   1  19
TORSDOF 7
