4PP.pdb
 OpenBabel04132111303D

 53 55  0  0  1  0  0  0  0  0999 V2000
    0.5200   16.4390   19.1710 C   0  0  0  0  0  0  0  0  0  0  0  0
    0.0480   15.3010   19.3010 O   0  0  0  0  0  0  0  0  0  0  0  0
    1.6960   16.7720   19.7870 O   0  0  0  0  0  0  0  0  0  0  0  0
   -1.6370   26.0050   17.8390 N   0  0  0  0  0  0  0  0  0  0  0  0
   -2.5080   25.3040   16.9820 C   0  0  0  0  0  0  0  0  0  0  0  0
   -2.5830   23.8980   17.0620 C   0  0  0  0  0  0  0  0  0  0  0  0
   -1.7900   23.1960   17.9930 C   0  0  0  0  0  0  0  0  0  0  0  0
   -0.9130   23.9090   18.8580 C   0  0  0  0  0  0  0  0  0  0  0  0
   -0.8420   25.3070   18.7760 C   0  0  0  0  0  0  0  0  0  0  0  0
   -1.9020   21.7140   18.0390 N   0  0  0  0  0  0  0  0  0  0  0  0
   -0.2300   17.4660   18.2990 C   0  0  1  0  0  0  0  0  0  0  0  0
    0.0960   18.8970   18.7340 C   0  0  0  0  0  0  0  0  0  0  0  0
   -1.2270   19.5940   19.0360 C   0  0  0  0  0  0  0  0  0  0  0  0
   -1.0180   21.1040   19.0560 C   0  0  0  0  0  0  0  0  0  0  0  0
    4.9330   20.3120   10.3410 N   0  0  0  0  0  0  0  0  0  0  0  0
    3.1740   18.8870   10.0250 N   0  0  0  0  0  0  0  0  0  0  0  0
    4.0810   19.4230   10.8170 C   0  0  0  0  0  0  0  0  0  0  0  0
    0.7180   16.7840   14.0710 C   0  0  0  0  0  0  0  0  0  0  0  0
   -0.4850   16.2740   14.6320 C   0  0  0  0  0  0  0  0  0  0  0  0
   -0.7800   16.5030   16.0010 C   0  0  0  0  0  0  0  0  0  0  0  0
    0.1240   17.2410   16.8200 C   0  0  0  0  0  0  0  0  0  0  0  0
    1.3390   17.7560   16.2610 C   0  0  0  0  0  0  0  0  0  0  0  0
    1.6390   17.5290   14.8830 C   0  0  0  0  0  0  0  0  0  0  0  0
    5.3300   18.7330   14.4360 C   0  0  0  0  0  0  0  0  0  0  0  0
    4.1470   18.2120   15.0370 C   0  0  0  0  0  0  0  0  0  0  0  0
    2.9490   18.0890   14.2630 C   0  0  0  0  0  0  0  0  0  0  0  0
    2.9520   18.4890   12.9010 C   0  0  0  0  0  0  0  0  0  0  0  0
    4.1260   19.0050   12.2990 C   0  0  0  0  0  0  0  0  0  0  0  0
    5.3190   19.1300   13.0650 C   0  0  0  0  0  0  0  0  0  0  0  0
    2.0500   17.6337   19.6864 H   0  0  0  0  0  0  0  0  0  0  0  0
   -3.0880   25.8165   16.2994 H   0  0  0  0  0  0  0  0  0  0  0  0
   -3.2207   23.3809   16.4368 H   0  0  0  0  0  0  0  0  0  0  0  0
   -0.3322   23.3996   19.5422 H   0  0  0  0  0  0  0  0  0  0  0  0
   -0.2075   25.8276   19.4016 H   0  0  0  0  0  0  0  0  0  0  0  0
   -2.5005   21.1944   17.4550 H   0  0  0  0  0  0  0  0  0  0  0  0
   -1.2833   17.3273   18.4263 H   0  0  0  0  0  0  0  0  0  0  0  0
    0.6089   19.4105   17.9478 H   0  0  0  0  0  0  0  0  0  0  0  0
    0.7279   18.8949   19.5975 H   0  0  0  0  0  0  0  0  0  0  0  0
   -1.5892   19.2722   19.9900 H   0  0  0  0  0  0  0  0  0  0  0  0
   -1.9405   19.3445   18.2786 H   0  0  0  0  0  0  0  0  0  0  0  0
   -1.2619   21.4893   20.0240 H   0  0  0  0  0  0  0  0  0  0  0  0
    0.0040   21.3354   18.8395 H   0  0  0  0  0  0  0  0  0  0  0  0
    4.8948   20.5715    9.3921 H   0  0  0  0  0  0  0  0  0  0  0  0
    3.1346   19.1456    9.0759 H   0  0  0  0  0  0  0  0  0  0  0  0
    2.5359   18.2280   10.3825 H   0  0  0  0  0  0  0  0  0  0  0  0
    0.9304   16.6179   13.0749 H   0  0  0  0  0  0  0  0  0  0  0  0
   -1.1426   15.7381   14.0443 H   0  0  0  0  0  0  0  0  0  0  0  0
   -1.6541   16.1331   16.4062 H   0  0  0  0  0  0  0  0  0  0  0  0
    1.9953   18.2894   16.8524 H   0  0  0  0  0  0  0  0  0  0  0  0
    6.1946   18.8232   14.9923 H   0  0  0  0  0  0  0  0  0  0  0  0
    4.1542   17.9241   16.0280 H   0  0  0  0  0  0  0  0  0  0  0  0
    2.0884   18.4029   12.3426 H   0  0  0  0  0  0  0  0  0  0  0  0
    6.1752   19.5073   12.6296 H   0  0  0  0  0  0  0  0  0  0  0  0
  1  2  2  0  0  0  0
  1  3  1  0  0  0  0
  1 11  1  0  0  0  0
  3 30  1  0  0  0  0
  4  5  2  0  0  0  0
  4  9  1  0  0  0  0
  5  6  1  0  0  0  0
  5 31  1  0  0  0  0
  6  7  2  0  0  0  0
  6 32  1  0  0  0  0
  7  8  1  0  0  0  0
  7 10  1  0  0  0  0
  8  9  2  0  0  0  0
  8 33  1  0  0  0  0
  9 34  1  0  0  0  0
 10 14  1  0  0  0  0
 10 35  1  0  0  0  0
 11 12  1  0  0  0  0
 11 21  1  0  0  0  0
 11 36  1  1  0  0  0
 12 13  1  0  0  0  0
 12 37  1  0  0  0  0
 12 38  1  0  0  0  0
 13 14  1  0  0  0  0
 13 39  1  0  0  0  0
 13 40  1  0  0  0  0
 14 41  1  0  0  0  0
 14 42  1  0  0  0  0
 15 17  2  0  0  0  0
 15 43  1  0  0  0  0
 16 17  1  0  0  0  0
 16 44  1  0  0  0  0
 16 45  1  0  0  0  0
 17 28  1  0  0  0  0
 18 19  2  0  0  0  0
 18 23  1  0  0  0  0
 18 46  1  0  0  0  0
 19 20  1  0  0  0  0
 19 47  1  0  0  0  0
 20 21  2  0  0  0  0
 20 48  1  0  0  0  0
 21 22  1  0  0  0  0
 22 23  2  0  0  0  0
 22 49  1  0  0  0  0
 23 26  1  0  0  0  0
 24 25  2  0  0  0  0
 24 29  1  0  0  0  0
 24 50  1  0  0  0  0
 25 26  1  0  0  0  0
 25 51  1  0  0  0  0
 26 27  2  0  0  0  0
 27 28  1  0  0  0  0
 27 52  1  0  0  0  0
 28 29  2  0  0  0  0
 29 53  1  0  0  0  0
M  END
>  <HET>
 4PP  C 500      29

>  <HETNAM>
     4PP (2S)-(3'-AMIDINO-3-BIPHENYL)-5-(4-PYRIDYLAMINO)PENTANOI
   2 4PP C ACID

>  <FORMUL>
      4PP    C23 H24 N4 O2

$$$$
