4PP.pdb
  rDOCK(R)          3D
libRbt.so/2013.1/901 2013/11/27
 34 36  0  0  0  0  0  0  0  0999 V2000
    6.9182   -0.0552   20.2922 C   0  0  0  0  0  0
    6.3617   -0.0345   19.1857 O   0  0  0  0  0  0
    6.7114   -1.1029   21.1484 O   0  0  0  0  0  0
    7.8681    6.0512   16.2227 N   0  0  0  0  0  0
    7.0962    5.0517   15.5985 C   0  0  0  0  0  0
    7.4755    3.6990   15.7215 C   0  0  0  0  0  0
    8.6218    3.3472   16.4636 C   0  0  0  0  0  0
    9.3973    4.3606   17.0940 C   0  0  0  0  0  0
    9.0163    5.7044   16.9701 C   0  0  0  0  0  0
    8.9831    1.9083   16.5634 N   0  0  0  0  0  0
    7.8521    1.1079   20.6830 C   0  0  0  0  0  0
    8.3680    1.8383   19.4406 C   0  0  0  0  0  0
    9.3751    0.9187   18.7568 C   0  0  0  0  0  0
   10.0213    1.6478   17.5843 C   0  0  0  0  0  0
    7.1691    9.0336   24.1569 N   0  0  0  0  0  0
    8.9369    9.4181   25.5540 N   0  0  0  0  0  0
    8.1405    8.5768   24.9253 C   0  0  0  0  0  0
    5.6678    3.8300   23.3399 C   0  0  0  0  0  0
    4.9647    2.9653   22.4567 C   0  0  0  0  0  0
    5.6837    2.0887   21.6034 C   0  0  0  0  0  0
    7.1092    2.0700   21.6242 C   0  0  0  0  0  0
    7.8236    2.9404   22.5107 C   0  0  0  0  0  0
    7.1036    3.8232   23.3724 C   0  0  0  0  0  0
    9.4210    5.1427   26.2293 C   0  0  0  0  0  0
    8.7396    4.2481   25.3532 C   0  0  0  0  0  0
    7.8663    4.7659   24.3439 C   0  0  0  0  0  0
    7.6874    6.1692   24.2265 C   0  0  0  0  0  0
    8.3644    7.0620   25.0934 C   0  0  0  0  0  0
    9.2328    6.5515   26.0989 C   0  0  0  0  0  0
    6.1500   -1.8097   20.8968 H   0  0  0  0  0  0
    8.5749    1.2043   16.0093 H   0  0  0  0  0  0
    7.0355   10.0039   24.0570 H   0  0  0  0  0  0
    8.8044   10.3886   25.4549 H   0  0  0  0  0  0
    9.6641    9.0761   26.1226 H   0  0  0  0  0  0
  1  2  2  0  0  0
  1  3  1  0  0  0
  1 11  1  0  0  0
  3 30  1  0  0  0
  4  5  2  0  0  0
  4  9  1  0  0  0
  5  6  1  0  0  0
  6  7  2  0  0  0
  7  8  1  0  0  0
  7 10  1  0  0  0
  8  9  2  0  0  0
 10 14  1  0  0  0
 10 31  1  0  0  0
 11 12  1  0  0  0
 11 21  1  0  0  0
 12 13  1  0  0  0
 13 14  1  0  0  0
 15 17  2  0  0  0
 15 32  1  0  0  0
 16 17  1  0  0  0
 16 33  1  0  0  0
 16 34  1  0  0  0
 17 28  1  0  0  0
 18 19  2  0  0  0
 18 23  1  0  0  0
 19 20  1  0  0  0
 20 21  2  0  0  0
 21 22  1  0  0  0
 22 23  2  0  0  0
 23 26  1  0  0  0
 24 25  2  0  0  0
 24 29  1  0  0  0
 25 26  1  0  0  0
 26 27  2  0  0  0
 27 28  1  0  0  0
 28 29  2  0  0  0
M  END
>  <CHROM.0>
-61.03949106,68.41576140,-131.75055502,-179.21850252,170.73872611,122.71145417
-121.31415809,157.15492758

>  <CHROM.1>
0.26470165,-22.17578079,-168.03333555,109.27092628,-71.98572853,-22.84626472
-174.66835682,-65.74133350,11.79139256,119.72462615,7.86036326,3.85928440
21.08168114,1.63109090,-1.33781767,-2.06346360

>  <FORMUL>
      4PP    C23 H24 N4 O2

>  <HET>
 4PP  C 500      29

>  <HETNAM>
     4PP (2S)-(3'-AMIDINO-3-BIPHENYL)-5-(4-PYRIDYLAMINO)PENTANOI
   2 4PP C ACID

>  <Name>
4PP.pdb

>  <RI>
0

>  <Rbt.Current_Directory>
/home/malgorzata/Desktop/rDOCK_IFD/Wyniki/7_factor_Xa/IFD

>  <Rbt.Executable>
rbdock ($Id: //depot/dev/client3/rdock/2013.1/src/exe/rbdock.cxx#4 $)

>  <Rbt.Library>
libRbt.so (2013.1, Build901 2013/11/27)

>  <Rbt.Parameter_File>
/home/malgorzata/Desktop/rDock_2013.1_src/data/scripts/dock.prm

>  <Rbt.Receptor>
cavity.prm

>  <SCORE>
-24.4356

>  <SCORE.INTER>
-18.56

>  <SCORE.INTER.CONST>
1

>  <SCORE.INTER.POLAR>
-1.0521

>  <SCORE.INTER.REPUL>
0

>  <SCORE.INTER.ROT>
9

>  <SCORE.INTER.VDW>
-29.3829

>  <SCORE.INTER.norm>
-0.64

>  <SCORE.INTRA>
-5.44251

>  <SCORE.INTRA.DIHEDRAL>
-10.2808

>  <SCORE.INTRA.DIHEDRAL.0>
20.1331

>  <SCORE.INTRA.POLAR>
0

>  <SCORE.INTRA.POLAR.0>
0

>  <SCORE.INTRA.REPUL>
0

>  <SCORE.INTRA.REPUL.0>
0

>  <SCORE.INTRA.VDW>
-0.302098

>  <SCORE.INTRA.VDW.0>
0.0644272

>  <SCORE.INTRA.norm>
-0.187673

>  <SCORE.RESTR>
0

>  <SCORE.RESTR.CAVITY>
0

>  <SCORE.RESTR.norm>
0

>  <SCORE.SYSTEM>
-0.433104

>  <SCORE.SYSTEM.CONST>
0

>  <SCORE.SYSTEM.DIHEDRAL>
5.12556

>  <SCORE.SYSTEM.POLAR>
-0.428551

>  <SCORE.SYSTEM.REPUL>
0.00243802

>  <SCORE.SYSTEM.VDW>
-1.551

>  <SCORE.SYSTEM.norm>
-0.0149346

>  <SCORE.heavy>
29

>  <SCORE.norm>
-0.842608

$$$$
4PP.pdb
  rDOCK(R)          3D
libRbt.so/2013.1/901 2013/11/27
 34 36  0  0  0  0  0  0  0  0999 V2000
    6.3050    1.4122   22.5625 C   0  0  0  0  0  0
    5.7031    2.0361   23.4475 O   0  0  0  0  0  0
    5.6113    0.6416   21.6690 O   0  0  0  0  0  0
    7.9023    8.2923   18.6585 N   0  0  0  0  0  0
    8.5941    7.2613   17.9929 C   0  0  0  0  0  0
    8.2507    5.9166   18.2429 C   0  0  0  0  0  0
    7.2219    5.6038   19.1551 C   0  0  0  0  0  0
    6.5246    6.6490   19.8236 C   0  0  0  0  0  0
    6.8684    7.9849   19.5716 C   0  0  0  0  0  0
    6.8969    4.1715   19.3874 N   0  0  0  0  0  0
    7.8404    1.5262   22.4777 C   0  0  0  0  0  0
    8.2554    2.6299   21.5015 C   0  0  0  0  0  0
    7.9953    2.1116   20.0905 C   0  0  0  0  0  0
    8.0360    3.2720   19.1026 C   0  0  0  0  0  0
    7.5018    8.1531   24.1532 N   0  0  0  0  0  0
    8.8704    9.5276   25.3625 N   0  0  0  0  0  0
    8.3529    8.3349   25.1458 C   0  0  0  0  0  0
    9.4923    2.1790   26.4883 C   0  0  0  0  0  0
    9.4351    0.8700   25.9359 C   0  0  0  0  0  0
    8.8994    0.6731   24.6367 C   0  0  0  0  0  0
    8.4156    1.7806   23.8805 C   0  0  0  0  0  0
    8.4686    3.1021   24.4325 C   0  0  0  0  0  0
    9.0085    3.3049   25.7393 C   0  0  0  0  0  0
    9.5538    6.2752   28.2198 C   0  0  0  0  0  0
    9.5041    4.9506   27.6954 C   0  0  0  0  0  0
    9.0791    4.7337   26.3457 C   0  0  0  0  0  0
    8.7101    5.8437   25.5416 C   0  0  0  0  0  0
    8.7603    7.1621   26.0578 C   0  0  0  0  0  0
    9.1812    7.3823   27.3994 C   0  0  0  0  0  0
    6.0691    0.1784   20.9954 H   0  0  0  0  0  0
    6.0175    3.8557   19.6976 H   0  0  0  0  0  0
    7.2488    8.9101   23.5769 H   0  0  0  0  0  0
    8.6183   10.2855   24.7869 H   0  0  0  0  0  0
    9.5090    9.6606   26.0999 H   0  0  0  0  0  0
  1  2  2  0  0  0
  1  3  1  0  0  0
  1 11  1  0  0  0
  3 30  1  0  0  0
  4  5  2  0  0  0
  4  9  1  0  0  0
  5  6  1  0  0  0
  6  7  2  0  0  0
  7  8  1  0  0  0
  7 10  1  0  0  0
  8  9  2  0  0  0
 10 14  1  0  0  0
 10 31  1  0  0  0
 11 12  1  0  0  0
 11 21  1  0  0  0
 12 13  1  0  0  0
 13 14  1  0  0  0
 15 17  2  0  0  0
 15 32  1  0  0  0
 16 17  1  0  0  0
 16 33  1  0  0  0
 16 34  1  0  0  0
 17 28  1  0  0  0
 18 19  2  0  0  0
 18 23  1  0  0  0
 19 20  1  0  0  0
 20 21  2  0  0  0
 21 22  1  0  0  0
 22 23  2  0  0  0
 23 26  1  0  0  0
 24 25  2  0  0  0
 24 29  1  0  0  0
 25 26  1  0  0  0
 26 27  2  0  0  0
 27 28  1  0  0  0
 28 29  2  0  0  0
M  END
>  <CHROM.0>
-61.03949106,68.55695630,-55.34642770,178.89717408,171.30677599,2.02181123
-82.79687140,75.55832843

>  <CHROM.1>
179.34573080,-93.51876415,25.06311817,145.13080603,-73.63637315,96.25290801
165.16805228,-66.21355257,26.77898273,-5.91485861,8.06167842,4.60292069,23.06491450
2.75551298,-1.32960149,-0.38227411

>  <FORMUL>
      4PP    C23 H24 N4 O2

>  <HET>
 4PP  C 500      29

>  <HETNAM>
     4PP (2S)-(3'-AMIDINO-3-BIPHENYL)-5-(4-PYRIDYLAMINO)PENTANOI
   2 4PP C ACID

>  <Name>
4PP.pdb

>  <RI>
0

>  <Rbt.Current_Directory>
/home/malgorzata/Desktop/rDOCK_IFD/Wyniki/7_factor_Xa/IFD

>  <Rbt.Executable>
rbdock ($Id: //depot/dev/client3/rdock/2013.1/src/exe/rbdock.cxx#4 $)

>  <Rbt.Library>
libRbt.so (2013.1, Build901 2013/11/27)

>  <Rbt.Parameter_File>
/home/malgorzata/Desktop/rDock_2013.1_src/data/scripts/dock.prm

>  <Rbt.Receptor>
cavity.prm

>  <SCORE>
-27.3795

>  <SCORE.INTER>
-19.6446

>  <SCORE.INTER.CONST>
1

>  <SCORE.INTER.POLAR>
-1.33554

>  <SCORE.INTER.REPUL>
0

>  <SCORE.INTER.ROT>
9

>  <SCORE.INTER.VDW>
-29.5037

>  <SCORE.INTER.norm>
-0.6774

>  <SCORE.INTRA>
-4.51787

>  <SCORE.INTRA.DIHEDRAL>
-8.93109

>  <SCORE.INTRA.DIHEDRAL.0>
20.1331

>  <SCORE.INTRA.POLAR>
0

>  <SCORE.INTRA.POLAR.0>
0

>  <SCORE.INTRA.REPUL>
0

>  <SCORE.INTRA.REPUL.0>
0

>  <SCORE.INTRA.VDW>
-0.0523301

>  <SCORE.INTRA.VDW.0>
0.0644272

>  <SCORE.INTRA.norm>
-0.155789

>  <SCORE.RESTR>
0.0278622

>  <SCORE.RESTR.CAVITY>
0.0278622

>  <SCORE.RESTR.norm>
0.000960764

>  <SCORE.SYSTEM>
-3.24486

>  <SCORE.SYSTEM.CONST>
0

>  <SCORE.SYSTEM.DIHEDRAL>
1.66856

>  <SCORE.SYSTEM.POLAR>
-0.464017

>  <SCORE.SYSTEM.VDW>
-2.50149

>  <SCORE.SYSTEM.norm>
-0.111892

>  <SCORE.heavy>
29

>  <SCORE.norm>
-0.94412

$$$$
4PP.pdb
  rDOCK(R)          3D
libRbt.so/2013.1/901 2013/11/27
 34 36  0  0  0  0  0  0  0  0999 V2000
    2.8101    3.3189   21.3362 C   0  0  0  0  0  0
    2.2687    2.9255   20.2937 O   0  0  0  0  0  0
    2.1977    4.2609   22.1179 O   0  0  0  0  0  0
    8.6824    0.0277   16.6857 N   0  0  0  0  0  0
    9.1833    0.3718   17.9565 C   0  0  0  0  0  0
    8.3794    0.1778   19.0989 C   0  0  0  0  0  0
    7.0805   -0.3560   18.9714 C   0  0  0  0  0  0
    6.5797   -0.7040   17.6853 C   0  0  0  0  0  0
    7.3824   -0.5104   16.5520 C   0  0  0  0  0  0
    6.2697   -0.5405   20.2041 N   0  0  0  0  0  0
    4.1737    2.7247   21.7426 C   0  0  0  0  0  0
    4.7255    1.8151   20.6420 C   0  0  0  0  0  0
    4.1292    0.4273   20.8562 C   0  0  0  0  0  0
    4.8159   -0.5737   19.9339 C   0  0  0  0  0  0
    8.1317    7.9698   27.5018 N   0  0  0  0  0  0
    9.5927    6.7916   28.8064 N   0  0  0  0  0  0
    8.8608    6.8901   27.7146 C   0  0  0  0  0  0
    6.9481    6.0103   22.6067 C   0  0  0  0  0  0
    6.0366    6.1029   21.5192 C   0  0  0  0  0  0
    5.1436    5.0331   21.2515 C   0  0  0  0  0  0
    5.1550    3.8630   22.0660 C   0  0  0  0  0  0
    6.0725    3.7629   23.1624 C   0  0  0  0  0  0
    6.9721    4.8381   23.4362 C   0  0  0  0  0  0
    9.7540    3.5804   25.8758 C   0  0  0  0  0  0
    8.8574    3.6340   24.7689 C   0  0  0  0  0  0
    7.9661    4.7452   24.6268 C   0  0  0  0  0  0
    7.9845    5.7848   25.5932 C   0  0  0  0  0  0
    8.8756    5.7368   26.6935 C   0  0  0  0  0  0
    9.7627    4.6335   26.8393 C   0  0  0  0  0  0
    1.3613    4.6032   21.8705 H   0  0  0  0  0  0
    6.6590   -0.6309   21.1038 H   0  0  0  0  0  0
    8.1300    8.7006   28.1615 H   0  0  0  0  0  0
    9.5921    7.5217   29.4669 H   0  0  0  0  0  0
   10.1400    5.9881   28.9613 H   0  0  0  0  0  0
  1  2  2  0  0  0
  1  3  1  0  0  0
  1 11  1  0  0  0
  3 30  1  0  0  0
  4  5  2  0  0  0
  4  9  1  0  0  0
  5  6  1  0  0  0
  6  7  2  0  0  0
  7  8  1  0  0  0
  7 10  1  0  0  0
  8  9  2  0  0  0
 10 14  1  0  0  0
 10 31  1  0  0  0
 11 12  1  0  0  0
 11 21  1  0  0  0
 12 13  1  0  0  0
 13 14  1  0  0  0
 15 17  2  0  0  0
 15 32  1  0  0  0
 16 17  1  0  0  0
 16 33  1  0  0  0
 16 34  1  0  0  0
 17 28  1  0  0  0
 18 19  2  0  0  0
 18 23  1  0  0  0
 19 20  1  0  0  0
 20 21  2  0  0  0
 21 22  1  0  0  0
 22 23  2  0  0  0
 23 26  1  0  0  0
 24 25  2  0  0  0
 24 29  1  0  0  0
 25 26  1  0  0  0
 26 27  2  0  0  0
 27 28  1  0  0  0
 28 29  2  0  0  0
M  END
>  <CHROM.0>
-61.03949106,-56.70898264,106.14661310,-57.75026974,24.82626616,130.14938066
-65.26289710,-12.35726086

>  <CHROM.1>
0.72323278,6.77499390,156.92392972,-128.37405379,-85.80465794,-39.68266974
-170.74453480,57.04915409,-6.82518007,-126.56173480,6.65023552,3.19638881
22.29795636,1.81896817,0.25033290,-2.26335162

>  <FORMUL>
      4PP    C23 H24 N4 O2

>  <HET>
 4PP  C 500      29

>  <HETNAM>
     4PP (2S)-(3'-AMIDINO-3-BIPHENYL)-5-(4-PYRIDYLAMINO)PENTANOI
   2 4PP C ACID

>  <Name>
4PP.pdb

>  <RI>
0

>  <Rbt.Current_Directory>
/home/malgorzata/Desktop/rDOCK_IFD/Wyniki/7_factor_Xa/IFD

>  <Rbt.Executable>
rbdock ($Id: //depot/dev/client3/rdock/2013.1/src/exe/rbdock.cxx#4 $)

>  <Rbt.Library>
libRbt.so (2013.1, Build901 2013/11/27)

>  <Rbt.Parameter_File>
/home/malgorzata/Desktop/rDock_2013.1_src/data/scripts/dock.prm

>  <Rbt.Receptor>
cavity.prm

>  <SCORE>
-17.2373

>  <SCORE.INTER>
-11.2915

>  <SCORE.INTER.CONST>
1

>  <SCORE.INTER.POLAR>
-0.923742

>  <SCORE.INTER.REPUL>
0

>  <SCORE.INTER.ROT>
9

>  <SCORE.INTER.VDW>
-22.5507

>  <SCORE.INTER.norm>
-0.38936

>  <SCORE.INTRA>
-4.64114

>  <SCORE.INTRA.DIHEDRAL>
-8.52653

>  <SCORE.INTRA.DIHEDRAL.0>
20.1331

>  <SCORE.INTRA.POLAR>
0

>  <SCORE.INTRA.POLAR.0>
0

>  <SCORE.INTRA.REPUL>
0

>  <SCORE.INTRA.REPUL.0>
0

>  <SCORE.INTRA.VDW>
-0.377877

>  <SCORE.INTRA.VDW.0>
0.0644272

>  <SCORE.INTRA.norm>
-0.160039

>  <SCORE.RESTR>
0

>  <SCORE.RESTR.CAVITY>
0

>  <SCORE.RESTR.norm>
0

>  <SCORE.SYSTEM>
-1.30475

>  <SCORE.SYSTEM.CONST>
0

>  <SCORE.SYSTEM.DIHEDRAL>
4.91356

>  <SCORE.SYSTEM.POLAR>
-0.444962

>  <SCORE.SYSTEM.VDW>
-2.24867

>  <SCORE.SYSTEM.norm>
-0.0449915

>  <SCORE.heavy>
29

>  <SCORE.norm>
-0.594391

$$$$
4PP.pdb
  rDOCK(R)          3D
libRbt.so/2013.1/901 2013/11/27
 34 36  0  0  0  0  0  0  0  0999 V2000
    6.8217    0.1334   21.9274 C   0  0  0  0  0  0
    7.3115    0.2877   20.8000 O   0  0  0  0  0  0
    6.5906   -1.1255   22.4122 O   0  0  0  0  0  0
   -1.2856    4.5361   24.1758 N   0  0  0  0  0  0
   -0.1544    5.2266   24.6536 C   0  0  0  0  0  0
    1.1324    4.6928   24.4345 C   0  0  0  0  0  0
    1.2878    3.4739   23.7428 C   0  0  0  0  0  0
    0.1419    2.7811   23.2603 C   0  0  0  0  0  0
   -1.1358    3.3156   23.4793 C   0  0  0  0  0  0
    2.6641    2.9499   23.5378 N   0  0  0  0  0  0
    6.4884    1.3770   22.7760 C   0  0  0  0  0  0
    5.0723    1.2858   23.3502 C   0  0  0  0  0  0
    4.0980    1.5043   22.1968 C   0  0  0  0  0  0
    2.6895    1.7008   22.7459 C   0  0  0  0  0  0
    7.4043    7.8763   24.4676 N   0  0  0  0  0  0
    8.8255    9.2135   25.6579 N   0  0  0  0  0  0
    8.4454    8.0133   25.2678 C   0  0  0  0  0  0
    9.4659    1.7441   25.9760 C   0  0  0  0  0  0
    8.9968    0.4645   25.5703 C   0  0  0  0  0  0
    8.0343    0.3599   24.5329 C   0  0  0  0  0  0
    7.5321    1.5315   23.8942 C   0  0  0  0  0  0
    7.9995    2.8241   24.2998 C   0  0  0  0  0  0
    8.9694    2.9336   25.3426 C   0  0  0  0  0  0
   11.1016    5.7592   26.9989 C   0  0  0  0  0  0
   10.6541    4.4632   26.6087 C   0  0  0  0  0  0
    9.4902    4.3287   25.7859 C   0  0  0  0  0  0
    8.7919    5.4913   25.3666 C   0  0  0  0  0  0
    9.2345    6.7813   25.7500 C   0  0  0  0  0  0
   10.3905    6.9196   26.5687 C   0  0  0  0  0  0
    6.2026   -1.2381   23.2576 H   0  0  0  0  0  0
    3.4720    3.3874   23.8915 H   0  0  0  0  0  0
    6.9076    8.6709   24.1658 H   0  0  0  0  0  0
    8.3297   10.0089   25.3568 H   0  0  0  0  0  0
    9.6052    9.3145   26.2505 H   0  0  0  0  0  0
  1  2  2  0  0  0
  1  3  1  0  0  0
  1 11  1  0  0  0
  3 30  1  0  0  0
  4  5  2  0  0  0
  4  9  1  0  0  0
  5  6  1  0  0  0
  6  7  2  0  0  0
  7  8  1  0  0  0
  7 10  1  0  0  0
  8  9  2  0  0  0
 10 14  1  0  0  0
 10 31  1  0  0  0
 11 12  1  0  0  0
 11 21  1  0  0  0
 12 13  1  0  0  0
 13 14  1  0  0  0
 15 17  2  0  0  0
 15 32  1  0  0  0
 16 17  1  0  0  0
 16 33  1  0  0  0
 16 34  1  0  0  0
 17 28  1  0  0  0
 18 19  2  0  0  0
 18 23  1  0  0  0
 19 20  1  0  0  0
 20 21  2  0  0  0
 21 22  1  0  0  0
 22 23  2  0  0  0
 23 26  1  0  0  0
 24 25  2  0  0  0
 24 29  1  0  0  0
 25 26  1  0  0  0
 26 27  2  0  0  0
 27 28  1  0  0  0
 28 29  2  0  0  0
M  END
>  <CHROM.0>
-61.03949106,-58.63825678,-108.69384330,-62.13755184,172.90978806,7.11296179
-114.53224237,78.22970724

>  <CHROM.1>
-178.64507057,131.47151455,-177.32487149,161.14076395,-72.39315703,-37.63567356
-168.80925825,64.84435932,-2.62390890,13.42855243,6.07125130,3.45497460,24.27734968
-2.79751363,-0.16215607,0.35649545

>  <FORMUL>
      4PP    C23 H24 N4 O2

>  <HET>
 4PP  C 500      29

>  <HETNAM>
     4PP (2S)-(3'-AMIDINO-3-BIPHENYL)-5-(4-PYRIDYLAMINO)PENTANOI
   2 4PP C ACID

>  <Name>
4PP.pdb

>  <RI>
0

>  <Rbt.Current_Directory>
/home/malgorzata/Desktop/rDOCK_IFD/Wyniki/7_factor_Xa/IFD

>  <Rbt.Executable>
rbdock ($Id: //depot/dev/client3/rdock/2013.1/src/exe/rbdock.cxx#4 $)

>  <Rbt.Library>
libRbt.so (2013.1, Build901 2013/11/27)

>  <Rbt.Parameter_File>
/home/malgorzata/Desktop/rDock_2013.1_src/data/scripts/dock.prm

>  <Rbt.Receptor>
cavity.prm

>  <SCORE>
-25.5169

>  <SCORE.INTER>
-14.5649

>  <SCORE.INTER.CONST>
1

>  <SCORE.INTER.POLAR>
-0.87178

>  <SCORE.INTER.REPUL>
0

>  <SCORE.INTER.ROT>
9

>  <SCORE.INTER.VDW>
-26.0009

>  <SCORE.INTER.norm>
-0.502238

>  <SCORE.INTRA>
-7.05394

>  <SCORE.INTRA.DIHEDRAL>
-14.6236

>  <SCORE.INTRA.DIHEDRAL.0>
20.1331

>  <SCORE.INTRA.POLAR>
0

>  <SCORE.INTRA.POLAR.0>
0

>  <SCORE.INTRA.REPUL>
0

>  <SCORE.INTRA.REPUL.0>
0

>  <SCORE.INTRA.VDW>
0.257874

>  <SCORE.INTRA.VDW.0>
0.0644272

>  <SCORE.INTRA.norm>
-0.243239

>  <SCORE.RESTR>
0.00555694

>  <SCORE.RESTR.CAVITY>
0.00555694

>  <SCORE.RESTR.norm>
0.000191619

>  <SCORE.SYSTEM>
-3.90361

>  <SCORE.SYSTEM.CONST>
0

>  <SCORE.SYSTEM.DIHEDRAL>
1.3715

>  <SCORE.SYSTEM.POLAR>
-0.460607

>  <SCORE.SYSTEM.REPUL>
0.00230789

>  <SCORE.SYSTEM.VDW>
-3.03484

>  <SCORE.SYSTEM.norm>
-0.134607

>  <SCORE.heavy>
29

>  <SCORE.norm>
-0.879893

$$$$
4PP.pdb
  rDOCK(R)          3D
libRbt.so/2013.1/901 2013/11/27
 34 36  0  0  0  0  0  0  0  0999 V2000
    5.5240    7.5578   18.9956 C   0  0  0  0  0  0
    6.3067    8.4652   19.3100 O   0  0  0  0  0  0
    4.1993    7.8317   18.7870 O   0  0  0  0  0  0
    9.6865    0.0600   18.5108 N   0  0  0  0  0  0
   10.4132    1.2618   18.6219 C   0  0  0  0  0  0
   10.1199    2.3365   17.7572 C   0  0  0  0  0  0
    9.1062    2.2101   16.7851 C   0  0  0  0  0  0
    8.3735    0.9946   16.6782 C   0  0  0  0  0  0
    8.6676   -0.0714   17.5404 C   0  0  0  0  0  0
    8.8344    3.3696   15.8948 N   0  0  0  0  0  0
    6.0662    6.1235   18.8333 C   0  0  0  0  0  0
    7.3710    6.1176   18.0329 C   0  0  0  0  0  0
    7.5710    4.7030   17.4980 C   0  0  0  0  0  0
    8.8174    4.6580   16.6213 C   0  0  0  0  0  0
   -0.4055    3.1787   24.2916 N   0  0  0  0  0  0
    0.4373    5.0659   23.3156 N   0  0  0  0  0  0
    0.6031    3.8302   23.7430 C   0  0  0  0  0  0
    6.6947    4.3357   22.7891 C   0  0  0  0  0  0
    7.7222    5.1005   22.1715 C   0  0  0  0  0  0
    7.5051    5.6743   20.8920 C   0  0  0  0  0  0
    6.2621    5.4878   20.2193 C   0  0  0  0  0  0
    5.2232    4.7164   20.8355 C   0  0  0  0  0  0
    5.4371    4.1383   22.1241 C   0  0  0  0  0  0
    3.5003    1.2382   23.8879 C   0  0  0  0  0  0
    4.5535    1.9729   23.2690 C   0  0  0  0  0  0
    4.3159    3.3068   22.8065 C   0  0  0  0  0  0
    3.0298    3.8850   22.9693 C   0  0  0  0  0  0
    1.9809    3.1593   23.5860 C   0  0  0  0  0  0
    2.2123    1.8326   24.0463 C   0  0  0  0  0  0
    3.8857    8.7117   18.8592 H   0  0  0  0  0  0
    8.6820    3.2885   14.9256 H   0  0  0  0  0  0
   -1.2816    3.6177   24.3867 H   0  0  0  0  0  0
   -0.4383    5.5061   23.4100 H   0  0  0  0  0  0
    1.1889    5.5488   22.9019 H   0  0  0  0  0  0
  1  2  2  0  0  0
  1  3  1  0  0  0
  1 11  1  0  0  0
  3 30  1  0  0  0
  4  5  2  0  0  0
  4  9  1  0  0  0
  5  6  1  0  0  0
  6  7  2  0  0  0
  7  8  1  0  0  0
  7 10  1  0  0  0
  8  9  2  0  0  0
 10 14  1  0  0  0
 10 31  1  0  0  0
 11 12  1  0  0  0
 11 21  1  0  0  0
 12 13  1  0  0  0
 13 14  1  0  0  0
 15 17  2  0  0  0
 15 32  1  0  0  0
 16 17  1  0  0  0
 16 33  1  0  0  0
 16 34  1  0  0  0
 17 28  1  0  0  0
 18 19  2  0  0  0
 18 23  1  0  0  0
 19 20  1  0  0  0
 20 21  2  0  0  0
 21 22  1  0  0  0
 22 23  2  0  0  0
 23 26  1  0  0  0
 24 25  2  0  0  0
 24 29  1  0  0  0
 25 26  1  0  0  0
 26 27  2  0  0  0
 27 28  1  0  0  0
 28 29  2  0  0  0
M  END
>  <CHROM.0>
-61.03949106,-59.27129119,-51.47815766,-178.15011274,21.08729739,5.36423956
-116.86378917,-45.78262605

>  <CHROM.1>
1.64843117,-44.98447418,-43.16136792,-70.29385620,-160.24756137,-88.17873463
176.67233852,-168.34564637,178.84222267,-54.54356624,5.83603527,3.95868801
20.32274293,0.14742215,0.70531510,-0.34543987

>  <FORMUL>
      4PP    C23 H24 N4 O2

>  <HET>
 4PP  C 500      29

>  <HETNAM>
     4PP (2S)-(3'-AMIDINO-3-BIPHENYL)-5-(4-PYRIDYLAMINO)PENTANOI
   2 4PP C ACID

>  <Name>
4PP.pdb

>  <RI>
0

>  <Rbt.Current_Directory>
/home/malgorzata/Desktop/rDOCK_IFD/Wyniki/7_factor_Xa/IFD

>  <Rbt.Executable>
rbdock ($Id: //depot/dev/client3/rdock/2013.1/src/exe/rbdock.cxx#4 $)

>  <Rbt.Library>
libRbt.so (2013.1, Build901 2013/11/27)

>  <Rbt.Parameter_File>
/home/malgorzata/Desktop/rDock_2013.1_src/data/scripts/dock.prm

>  <Rbt.Receptor>
cavity.prm

>  <SCORE>
-20.423

>  <SCORE.INTER>
-14.2726

>  <SCORE.INTER.CONST>
1

>  <SCORE.INTER.POLAR>
-1.15727

>  <SCORE.INTER.REPUL>
0

>  <SCORE.INTER.ROT>
9

>  <SCORE.INTER.VDW>
-24.7378

>  <SCORE.INTER.norm>
-0.492158

>  <SCORE.INTRA>
-2.48113

>  <SCORE.INTRA.DIHEDRAL>
-3.80259

>  <SCORE.INTRA.DIHEDRAL.0>
20.1331

>  <SCORE.INTRA.POLAR>
0

>  <SCORE.INTRA.POLAR.0>
0

>  <SCORE.INTRA.REPUL>
0

>  <SCORE.INTRA.REPUL.0>
0

>  <SCORE.INTRA.VDW>
-0.579829

>  <SCORE.INTRA.VDW.0>
0.0644272

>  <SCORE.INTRA.norm>
-0.0855561

>  <SCORE.RESTR>
0

>  <SCORE.RESTR.CAVITY>
0

>  <SCORE.RESTR.norm>
0

>  <SCORE.SYSTEM>
-3.66926

>  <SCORE.SYSTEM.CONST>
0

>  <SCORE.SYSTEM.DIHEDRAL>
1.85691

>  <SCORE.SYSTEM.POLAR>
-0.44955

>  <SCORE.SYSTEM.VDW>
-3.06924

>  <SCORE.SYSTEM.norm>
-0.126526

>  <SCORE.heavy>
29

>  <SCORE.norm>
-0.70424

$$$$
4PP.pdb
  rDOCK(R)          3D
libRbt.so/2013.1/901 2013/11/27
 34 36  0  0  0  0  0  0  0  0999 V2000
    7.4626    0.9679   21.3119 C   0  0  0  0  0  0
    7.0243    0.0448   20.6116 O   0  0  0  0  0  0
    8.6412    1.5818   20.9844 O   0  0  0  0  0  0
    7.0858    5.3413   20.7609 N   0  0  0  0  0  0
    6.0986    4.4398   20.3169 C   0  0  0  0  0  0
    5.2110    3.8632   21.2489 C   0  0  0  0  0  0
    5.3108    4.1849   22.6182 C   0  0  0  0  0  0
    6.3087    5.0978   23.0614 C   0  0  0  0  0  0
    7.1887    5.6697   22.1316 C   0  0  0  0  0  0
    4.3540    3.5504   23.5632 N   0  0  0  0  0  0
    6.6568    1.4190   22.5467 C   0  0  0  0  0  0
    5.5248    0.4350   22.8525 C   0  0  0  0  0  0
    4.5592    1.1331   23.8053 C   0  0  0  0  0  0
    3.8356    2.2557   23.0703 C   0  0  0  0  0  0
    7.2374    7.8956   24.5841 N   0  0  0  0  0  0
    8.7036    9.2411   25.7085 N   0  0  0  0  0  0
    8.3063    8.0379   25.3456 C   0  0  0  0  0  0
    9.3503    1.7766   25.9901 C   0  0  0  0  0  0
    8.9105    0.4987   25.5478 C   0  0  0  0  0  0
    8.0401    0.3972   24.4317 C   0  0  0  0  0  0
    7.6013    1.5702   23.7502 C   0  0  0  0  0  0
    8.0396    2.8611   24.1923 C   0  0  0  0  0  0
    8.9169    2.9675   25.3145 C   0  0  0  0  0  0
   10.9707    5.7898   27.0721 C   0  0  0  0  0  0
   10.5525    4.4958   26.6447 C   0  0  0  0  0  0
    9.4057    4.3606   25.7985 C   0  0  0  0  0  0
    8.6947    5.5206   25.3934 C   0  0  0  0  0  0
    9.1082    6.8087   25.8137 C   0  0  0  0  0  0
   10.2471    6.9477   26.6559 C   0  0  0  0  0  0
    9.1197    1.3042   20.2282 H   0  0  0  0  0  0
    4.0935    3.9493   24.4247 H   0  0  0  0  0  0
    6.7327    8.6884   24.2910 H   0  0  0  0  0  0
    8.2000   10.0348   25.4161 H   0  0  0  0  0  0
    9.5040    9.3461   26.2722 H   0  0  0  0  0  0
  1  2  2  0  0  0
  1  3  1  0  0  0
  1 11  1  0  0  0
  3 30  1  0  0  0
  4  5  2  0  0  0
  4  9  1  0  0  0
  5  6  1  0  0  0
  6  7  2  0  0  0
  7  8  1  0  0  0
  7 10  1  0  0  0
  8  9  2  0  0  0
 10 14  1  0  0  0
 10 31  1  0  0  0
 11 12  1  0  0  0
 11 21  1  0  0  0
 12 13  1  0  0  0
 13 14  1  0  0  0
 15 17  2  0  0  0
 15 32  1  0  0  0
 16 17  1  0  0  0
 16 33  1  0  0  0
 16 34  1  0  0  0
 17 28  1  0  0  0
 18 19  2  0  0  0
 18 23  1  0  0  0
 19 20  1  0  0  0
 20 21  2  0  0  0
 21 22  1  0  0  0
 22 23  2  0  0  0
 23 26  1  0  0  0
 24 25  2  0  0  0
 24 29  1  0  0  0
 25 26  1  0  0  0
 26 27  2  0  0  0
 27 28  1  0  0  0
 28 29  2  0  0  0
M  END
>  <CHROM.0>
-61.03949106,67.84282361,-63.07675977,-61.77765593,24.45195963,125.48277390
-104.25879196,-22.54440598

>  <CHROM.1>
-0.00470268,10.70495227,25.64711985,102.70371753,-164.30354116,-77.39397818
69.20731412,-108.27272186,1.16103313,17.79760020,7.52909027,3.75816541,23.77470976
-2.21146413,-0.80909474,0.10581279

>  <FORMUL>
      4PP    C23 H24 N4 O2

>  <HET>
 4PP  C 500      29

>  <HETNAM>
     4PP (2S)-(3'-AMIDINO-3-BIPHENYL)-5-(4-PYRIDYLAMINO)PENTANOI
   2 4PP C ACID

>  <Name>
4PP.pdb

>  <RI>
0

>  <Rbt.Current_Directory>
/home/malgorzata/Desktop/rDOCK_IFD/Wyniki/7_factor_Xa/IFD

>  <Rbt.Executable>
rbdock ($Id: //depot/dev/client3/rdock/2013.1/src/exe/rbdock.cxx#4 $)

>  <Rbt.Library>
libRbt.so (2013.1, Build901 2013/11/27)

>  <Rbt.Parameter_File>
/home/malgorzata/Desktop/rDock_2013.1_src/data/scripts/dock.prm

>  <Rbt.Receptor>
cavity.prm

>  <SCORE>
-23.3261

>  <SCORE.INTER>
-16.9511

>  <SCORE.INTER.CONST>
1

>  <SCORE.INTER.POLAR>
-0.87178

>  <SCORE.INTER.REPUL>
0.00202834

>  <SCORE.INTER.ROT>
9

>  <SCORE.INTER.VDW>
-28.3972

>  <SCORE.INTER.norm>
-0.58452

>  <SCORE.INTRA>
-5.22378

>  <SCORE.INTRA.DIHEDRAL>
-7.04212

>  <SCORE.INTRA.DIHEDRAL.0>
20.1331

>  <SCORE.INTRA.POLAR>
0

>  <SCORE.INTRA.POLAR.0>
0

>  <SCORE.INTRA.REPUL>
0

>  <SCORE.INTRA.REPUL.0>
0

>  <SCORE.INTRA.VDW>
-1.70272

>  <SCORE.INTRA.VDW.0>
0.0644272

>  <SCORE.INTRA.norm>
-0.18013

>  <SCORE.RESTR>
0.029846

>  <SCORE.RESTR.CAVITY>
0.029846

>  <SCORE.RESTR.norm>
0.00102917

>  <SCORE.SYSTEM>
-1.18104

>  <SCORE.SYSTEM.CONST>
0

>  <SCORE.SYSTEM.DIHEDRAL>
5.49708

>  <SCORE.SYSTEM.POLAR>
-0.487054

>  <SCORE.SYSTEM.REPUL>
4.33003e-05

>  <SCORE.SYSTEM.VDW>
-2.27382

>  <SCORE.SYSTEM.norm>
-0.0407255

>  <SCORE.heavy>
29

>  <SCORE.norm>
-0.804347

$$$$
4PP.pdb
  rDOCK(R)          3D
libRbt.so/2013.1/901 2013/11/27
 34 36  0  0  0  0  0  0  0  0999 V2000
    6.6617    5.8158   18.5960 C   0  0  0  0  0  0
    5.6676    5.7910   17.8571 O   0  0  0  0  0  0
    7.6442    6.7480   18.3986 O   0  0  0  0  0  0
    6.7089   -2.5959   18.3179 N   0  0  0  0  0  0
    7.2502   -2.4816   17.0223 C   0  0  0  0  0  0
    7.8294   -1.2625   16.6137 C   0  0  0  0  0  0
    7.8660   -0.1625   17.4951 C   0  0  0  0  0  0
    7.3195   -0.2836   18.8037 C   0  0  0  0  0  0
    6.7453   -1.4977   19.2066 C   0  0  0  0  0  0
    8.4851    1.1027   17.0187 N   0  0  0  0  0  0
    6.7682    4.7909   19.7431 C   0  0  0  0  0  0
    7.9775    3.8729   19.5479 C   0  0  0  0  0  0
    7.6979    3.0047   18.3250 C   0  0  0  0  0  0
    8.8423    2.0177   18.1246 C   0  0  0  0  0  0
   10.3770    5.9741   29.0616 N   0  0  0  0  0  0
    8.7669    7.3908   28.2709 N   0  0  0  0  0  0
    9.4703    6.2824   28.1529 C   0  0  0  0  0  0
    6.9485    6.9593   23.5517 C   0  0  0  0  0  0
    6.2785    7.5233   22.4314 C   0  0  0  0  0  0
    6.2266    6.8105   21.2055 C   0  0  0  0  0  0
    6.8442    5.5308   21.0885 C   0  0  0  0  0  0
    7.5227    4.9578   22.2133 C   0  0  0  0  0  0
    7.5759    5.6714   23.4496 C   0  0  0  0  0  0
    9.3739    3.1561   25.8399 C   0  0  0  0  0  0
    8.7133    3.6866   24.6934 C   0  0  0  0  0  0
    8.3013    5.0575   24.6788 C   0  0  0  0  0  0
    8.5556    5.8764   25.8101 C   0  0  0  0  0  0
    9.2140    5.3541   26.9506 C   0  0  0  0  0  0
    9.6243    3.9914   26.9699 C   0  0  0  0  0  0
    8.3774    6.7864   18.9806 H   0  0  0  0  0  0
    8.6407    1.3093   16.0687 H   0  0  0  0  0  0
   10.5322    6.5751   29.8257 H   0  0  0  0  0  0
    8.9210    7.9927   29.0346 H   0  0  0  0  0  0
    8.0874    7.6169   27.5953 H   0  0  0  0  0  0
  1  2  2  0  0  0
  1  3  1  0  0  0
  1 11  1  0  0  0
  3 30  1  0  0  0
  4  5  2  0  0  0
  4  9  1  0  0  0
  5  6  1  0  0  0
  6  7  2  0  0  0
  7  8  1  0  0  0
  7 10  1  0  0  0
  8  9  2  0  0  0
 10 14  1  0  0  0
 10 31  1  0  0  0
 11 12  1  0  0  0
 11 21  1  0  0  0
 12 13  1  0  0  0
 13 14  1  0  0  0
 15 17  2  0  0  0
 15 32  1  0  0  0
 16 17  1  0  0  0
 16 33  1  0  0  0
 16 34  1  0  0  0
 17 28  1  0  0  0
 18 19  2  0  0  0
 18 23  1  0  0  0
 19 20  1  0  0  0
 20 21  2  0  0  0
 21 22  1  0  0  0
 22 23  2  0  0  0
 23 26  1  0  0  0
 24 25  2  0  0  0
 24 29  1  0  0  0
 25 26  1  0  0  0
 26 27  2  0  0  0
 27 28  1  0  0  0
 28 29  2  0  0  0
M  END
>  <CHROM.0>
-61.03949106,67.68175861,-73.06940932,-64.90189106,20.43478195,-6.97817057
-108.77799317,-37.41154847

>  <CHROM.1>
177.49664410,117.10530783,-162.13171897,-94.80284637,-67.72451705,28.29285953
-177.11803163,174.46145112,-161.20762007,168.03649569,7.83970624,3.79672189
21.65278243,2.00689934,1.24366395,-2.54999756

>  <FORMUL>
      4PP    C23 H24 N4 O2

>  <HET>
 4PP  C 500      29

>  <HETNAM>
     4PP (2S)-(3'-AMIDINO-3-BIPHENYL)-5-(4-PYRIDYLAMINO)PENTANOI
   2 4PP C ACID

>  <Name>
4PP.pdb

>  <RI>
0

>  <Rbt.Current_Directory>
/home/malgorzata/Desktop/rDOCK_IFD/Wyniki/7_factor_Xa/IFD

>  <Rbt.Executable>
rbdock ($Id: //depot/dev/client3/rdock/2013.1/src/exe/rbdock.cxx#4 $)

>  <Rbt.Library>
libRbt.so (2013.1, Build901 2013/11/27)

>  <Rbt.Parameter_File>
/home/malgorzata/Desktop/rDock_2013.1_src/data/scripts/dock.prm

>  <Rbt.Receptor>
cavity.prm

>  <SCORE>
-26.8241

>  <SCORE.INTER>
-17.1356

>  <SCORE.INTER.CONST>
1

>  <SCORE.INTER.POLAR>
-1.71238

>  <SCORE.INTER.REPUL>
0

>  <SCORE.INTER.ROT>
9

>  <SCORE.INTER.VDW>
-25.7135

>  <SCORE.INTER.norm>
-0.590882

>  <SCORE.INTRA>
-6.17815

>  <SCORE.INTRA.DIHEDRAL>
-13.0603

>  <SCORE.INTRA.DIHEDRAL.0>
20.1331

>  <SCORE.INTRA.POLAR>
0

>  <SCORE.INTRA.POLAR.0>
0

>  <SCORE.INTRA.REPUL>
0

>  <SCORE.INTRA.REPUL.0>
0

>  <SCORE.INTRA.VDW>
0.352015

>  <SCORE.INTRA.VDW.0>
0.0644272

>  <SCORE.INTRA.norm>
-0.21304

>  <SCORE.RESTR>
0

>  <SCORE.RESTR.CAVITY>
0

>  <SCORE.RESTR.norm>
0

>  <SCORE.SYSTEM>
-3.51037

>  <SCORE.SYSTEM.CONST>
0

>  <SCORE.SYSTEM.DIHEDRAL>
2.23738

>  <SCORE.SYSTEM.POLAR>
-0.487352

>  <SCORE.SYSTEM.REPUL>
0.000640673

>  <SCORE.SYSTEM.VDW>
-2.97527

>  <SCORE.SYSTEM.norm>
-0.121047

>  <SCORE.heavy>
29

>  <SCORE.norm>
-0.924969

$$$$
4PP.pdb
  rDOCK(R)          3D
libRbt.so/2013.1/901 2013/11/27
 34 36  0  0  0  0  0  0  0  0999 V2000
    3.5282    2.9341   20.5933 C   0  0  0  0  0  0
    2.6812    3.6346   20.0217 O   0  0  0  0  0  0
    4.1368    1.9060   19.9256 O   0  0  0  0  0  0
    7.0646   -1.0532   24.8875 N   0  0  0  0  0  0
    6.8400   -1.6187   23.6170 C   0  0  0  0  0  0
    5.5605   -1.5303   23.0305 C   0  0  0  0  0  0
    4.5101   -0.8811   23.7115 C   0  0  0  0  0  0
    4.7426   -0.3096   24.9941 C   0  0  0  0  0  0
    6.0164   -0.3988   25.5734 C   0  0  0  0  0  0
    3.1782   -0.8147   23.0539 N   0  0  0  0  0  0
    3.8917    3.2450   22.0592 C   0  0  0  0  0  0
    3.8289    1.9807   22.9199 C   0  0  0  0  0  0
    2.3860    1.4858   22.8980 C   0  0  0  0  0  0
    2.2799    0.1806   23.6787 C   0  0  0  0  0  0
    9.9108    6.3621   28.7381 N   0  0  0  0  0  0
    9.9773    4.4638   27.4666 N   0  0  0  0  0  0
    9.5621    5.7012   27.6497 C   0  0  0  0  0  0
    7.8896    5.0468   22.1621 C   0  0  0  0  0  0
    7.4881    4.2442   21.0590 C   0  0  0  0  0  0
    6.1914    3.6684   21.0379 C   0  0  0  0  0  0
    5.2869    3.8879   22.1179 C   0  0  0  0  0  0
    5.6863    4.6942   23.2334 C   0  0  0  0  0  0
    6.9902    5.2770   23.2579 C   0  0  0  0  0  0
    7.4604    8.3119   25.6747 C   0  0  0  0  0  0
    7.0335    7.5307   24.5613 C   0  0  0  0  0  0
    7.4322    6.1597   24.4576 C   0  0  0  0  0  0
    8.2516    5.5912   25.4679 C   0  0  0  0  0  0
    8.6761    6.3631   26.5773 C   0  0  0  0  0  0
    8.2830    7.7268   26.6839 C   0  0  0  0  0  0
    4.7740    1.3758   20.3624 H   0  0  0  0  0  0
    2.9216   -1.3734   22.2850 H   0  0  0  0  0  0
   10.4774    5.9288   29.4166 H   0  0  0  0  0  0
   10.5440    4.0293   28.1443 H   0  0  0  0  0  0
    9.7207    3.9739   26.6520 H   0  0  0  0  0  0
  1  2  2  0  0  0
  1  3  1  0  0  0
  1 11  1  0  0  0
  3 30  1  0  0  0
  4  5  2  0  0  0
  4  9  1  0  0  0
  5  6  1  0  0  0
  6  7  2  0  0  0
  7  8  1  0  0  0
  7 10  1  0  0  0
  8  9  2  0  0  0
 10 14  1  0  0  0
 10 31  1  0  0  0
 11 12  1  0  0  0
 11 21  1  0  0  0
 12 13  1  0  0  0
 13 14  1  0  0  0
 15 17  2  0  0  0
 15 32  1  0  0  0
 16 17  1  0  0  0
 16 33  1  0  0  0
 16 34  1  0  0  0
 17 28  1  0  0  0
 18 19  2  0  0  0
 18 23  1  0  0  0
 19 20  1  0  0  0
 20 21  2  0  0  0
 21 22  1  0  0  0
 22 23  2  0  0  0
 23 26  1  0  0  0
 24 25  2  0  0  0
 24 29  1  0  0  0
 25 26  1  0  0  0
 26 27  2  0  0  0
 27 28  1  0  0  0
 28 29  2  0  0  0
M  END
>  <CHROM.0>
-61.03949106,154.87931417,-122.63286217,-61.29502446,171.15535314,3.55673177
-126.73603594,-49.34067806

>  <CHROM.1>
-179.71687199,129.97946834,-164.57817849,95.20577875,-62.67092727,-22.42443462
176.87021145,-59.23312232,-175.85711470,99.49034609,6.05535845,3.17772109
23.80539138,2.63801267,0.88895068,2.77087022

>  <FORMUL>
      4PP    C23 H24 N4 O2

>  <HET>
 4PP  C 500      29

>  <HETNAM>
     4PP (2S)-(3'-AMIDINO-3-BIPHENYL)-5-(4-PYRIDYLAMINO)PENTANOI
   2 4PP C ACID

>  <Name>
4PP.pdb

>  <RI>
0

>  <Rbt.Current_Directory>
/home/malgorzata/Desktop/rDOCK_IFD/Wyniki/7_factor_Xa/IFD

>  <Rbt.Executable>
rbdock ($Id: //depot/dev/client3/rdock/2013.1/src/exe/rbdock.cxx#4 $)

>  <Rbt.Library>
libRbt.so (2013.1, Build901 2013/11/27)

>  <Rbt.Parameter_File>
/home/malgorzata/Desktop/rDock_2013.1_src/data/scripts/dock.prm

>  <Rbt.Receptor>
cavity.prm

>  <SCORE>
-19.5777

>  <SCORE.INTER>
-11.7954

>  <SCORE.INTER.CONST>
1

>  <SCORE.INTER.POLAR>
-0.828265

>  <SCORE.INTER.REPUL>
0

>  <SCORE.INTER.ROT>
9

>  <SCORE.INTER.VDW>
-23.3793

>  <SCORE.INTER.norm>
-0.406739

>  <SCORE.INTRA>
-5.68022

>  <SCORE.INTRA.DIHEDRAL>
-10.3969

>  <SCORE.INTRA.DIHEDRAL.0>
20.1331

>  <SCORE.INTRA.POLAR>
0

>  <SCORE.INTRA.POLAR.0>
0

>  <SCORE.INTRA.REPUL>
0

>  <SCORE.INTRA.REPUL.0>
0

>  <SCORE.INTRA.VDW>
-0.481789

>  <SCORE.INTRA.VDW.0>
0.0644272

>  <SCORE.INTRA.norm>
-0.19587

>  <SCORE.RESTR>
0

>  <SCORE.RESTR.CAVITY>
0

>  <SCORE.RESTR.norm>
0

>  <SCORE.SYSTEM>
-2.10208

>  <SCORE.SYSTEM.CONST>
0

>  <SCORE.SYSTEM.DIHEDRAL>
4.0301

>  <SCORE.SYSTEM.POLAR>
-0.403798

>  <SCORE.SYSTEM.REPUL>
0.00251281

>  <SCORE.SYSTEM.VDW>
-2.75678

>  <SCORE.SYSTEM.norm>
-0.0724854

>  <SCORE.heavy>
29

>  <SCORE.norm>
-0.675094

$$$$
4PP.pdb
  rDOCK(R)          3D
libRbt.so/2013.1/901 2013/11/27
 34 36  0  0  0  0  0  0  0  0999 V2000
    6.3761    2.3753   21.7720 C   0  0  0  0  0  0
    5.9606    3.1661   22.6303 O   0  0  0  0  0  0
    5.6483    2.1462   20.6357 O   0  0  0  0  0  0
    8.7259    5.9756   16.4825 N   0  0  0  0  0  0
    8.3568    5.4644   17.7422 C   0  0  0  0  0  0
    8.5741    4.1016   18.0328 C   0  0  0  0  0  0
    9.1561    3.2535   17.0683 C   0  0  0  0  0  0
    9.5291    3.7752   15.7976 C   0  0  0  0  0  0
    9.3122    5.1309   15.5129 C   0  0  0  0  0  0
    9.3637    1.8237   17.4198 N   0  0  0  0  0  0
    7.7258    1.6650   21.9986 C   0  0  0  0  0  0
    8.7876    2.1807   21.0240 C   0  0  0  0  0  0
    8.5818    1.4530   19.6991 C   0  0  0  0  0  0
    9.8116    1.6365   18.8170 C   0  0  0  0  0  0
    9.2921    9.4806   24.8865 N   0  0  0  0  0  0
    7.3269    8.3377   24.6487 N   0  0  0  0  0  0
    8.5796    8.3822   25.0560 C   0  0  0  0  0  0
    8.9815    2.1455   26.1738 C   0  0  0  0  0  0
    8.6025    0.8682   25.6768 C   0  0  0  0  0  0
    8.1995    0.7266   24.3236 C   0  0  0  0  0  0
    8.1704    1.8586   23.4575 C   0  0  0  0  0  0
    8.5493    3.1490   23.9528 C   0  0  0  0  0  0
    8.9570    3.2955   25.3140 C   0  0  0  0  0  0
   10.6583    6.1066   27.4297 C   0  0  0  0  0  0
   10.2968    4.8132   26.9516 C   0  0  0  0  0  0
    9.3780    4.6875   25.8610 C   0  0  0  0  0  0
    8.8348    5.8561   25.2657 C   0  0  0  0  0  0
    9.1931    7.1435   25.7360 C   0  0  0  0  0  0
   10.1054    7.2732   26.8207 C   0  0  0  0  0  0
    4.8337    2.5901   20.5037 H   0  0  0  0  0  0
    9.2186    1.0811   16.7899 H   0  0  0  0  0  0
    8.8894   10.2661   24.4506 H   0  0  0  0  0  0
    6.9229    9.1225   24.2127 H   0  0  0  0  0  0
    6.7951    7.5197   24.7804 H   0  0  0  0  0  0
  1  2  2  0  0  0
  1  3  1  0  0  0
  1 11  1  0  0  0
  3 30  1  0  0  0
  4  5  2  0  0  0
  4  9  1  0  0  0
  5  6  1  0  0  0
  6  7  2  0  0  0
  7  8  1  0  0  0
  7 10  1  0  0  0
  8  9  2  0  0  0
 10 14  1  0  0  0
 10 31  1  0  0  0
 11 12  1  0  0  0
 11 21  1  0  0  0
 12 13  1  0  0  0
 13 14  1  0  0  0
 15 17  2  0  0  0
 15 32  1  0  0  0
 16 17  1  0  0  0
 16 33  1  0  0  0
 16 34  1  0  0  0
 17 28  1  0  0  0
 18 19  2  0  0  0
 18 23  1  0  0  0
 19 20  1  0  0  0
 20 21  2  0  0  0
 21 22  1  0  0  0
 22 23  2  0  0  0
 23 26  1  0  0  0
 24 25  2  0  0  0
 24 29  1  0  0  0
 25 26  1  0  0  0
 26 27  2  0  0  0
 27 28  1  0  0  0
 28 29  2  0  0  0
M  END
>  <CHROM.0>
-61.03949106,-58.47847493,99.15993103,-179.34121126,22.27533375,1.48250741
-120.17231051,72.64995436

>  <CHROM.1>
0.17797420,-110.41454524,-39.23117665,91.11156962,-81.41436101,112.17792814
-164.97368431,-141.00766791,-143.25857968,26.94377518,8.60081074,4.08219281
22.21566793,1.91904033,-1.42008297,-1.50808549

>  <FORMUL>
      4PP    C23 H24 N4 O2

>  <HET>
 4PP  C 500      29

>  <HETNAM>
     4PP (2S)-(3'-AMIDINO-3-BIPHENYL)-5-(4-PYRIDYLAMINO)PENTANOI
   2 4PP C ACID

>  <Name>
4PP.pdb

>  <RI>
0

>  <Rbt.Current_Directory>
/home/malgorzata/Desktop/rDOCK_IFD/Wyniki/7_factor_Xa/IFD

>  <Rbt.Executable>
rbdock ($Id: //depot/dev/client3/rdock/2013.1/src/exe/rbdock.cxx#4 $)

>  <Rbt.Library>
libRbt.so (2013.1, Build901 2013/11/27)

>  <Rbt.Parameter_File>
/home/malgorzata/Desktop/rDock_2013.1_src/data/scripts/dock.prm

>  <Rbt.Receptor>
cavity.prm

>  <SCORE>
-24.2506

>  <SCORE.INTER>
-19.3415

>  <SCORE.INTER.CONST>
1

>  <SCORE.INTER.POLAR>
-0.55471

>  <SCORE.INTER.REPUL>
0.0406692

>  <SCORE.INTER.ROT>
9

>  <SCORE.INTER.VDW>
-32.0588

>  <SCORE.INTER.norm>
-0.666949

>  <SCORE.INTRA>
-0.588399

>  <SCORE.INTRA.DIHEDRAL>
0.987206

>  <SCORE.INTRA.DIHEDRAL.0>
20.1331

>  <SCORE.INTRA.POLAR>
0

>  <SCORE.INTRA.POLAR.0>
0

>  <SCORE.INTRA.REPUL>
0

>  <SCORE.INTRA.REPUL.0>
0

>  <SCORE.INTRA.VDW>
-1.082

>  <SCORE.INTRA.VDW.0>
0.0644272

>  <SCORE.INTRA.norm>
-0.0202896

>  <SCORE.RESTR>
0.0143597

>  <SCORE.RESTR.CAVITY>
0.0143597

>  <SCORE.RESTR.norm>
0.000495161

>  <SCORE.SYSTEM>
-4.33508

>  <SCORE.SYSTEM.CONST>
0

>  <SCORE.SYSTEM.DIHEDRAL>
1.87982

>  <SCORE.SYSTEM.POLAR>
-0.433903

>  <SCORE.SYSTEM.VDW>
-3.79972

>  <SCORE.SYSTEM.norm>
-0.149485

>  <SCORE.heavy>
29

>  <SCORE.norm>
-0.836229

$$$$
4PP.pdb
  rDOCK(R)          3D
libRbt.so/2013.1/901 2013/11/27
 34 36  0  0  0  0  0  0  0  0999 V2000
    8.1932    2.9249   22.1983 C   0  0  0  0  0  0
    7.3556    3.8246   22.0450 O   0  0  0  0  0  0
    8.8724    2.4244   21.1205 O   0  0  0  0  0  0
    7.4208    9.7555   24.6166 N   0  0  0  0  0  0
    8.6428    9.5115   25.2735 C   0  0  0  0  0  0
    8.9121    8.2276   25.7911 C   0  0  0  0  0  0
    7.9637    7.1930   25.6542 C   0  0  0  0  0  0
    6.7314    7.4441   24.9879 C   0  0  0  0  0  0
    6.4678    8.7218   24.4738 C   0  0  0  0  0  0
    8.2916    5.8567   26.2179 N   0  0  0  0  0  0
    8.4647    2.3881   23.6181 C   0  0  0  0  0  0
    8.2545    3.4823   24.6678 C   0  0  0  0  0  0
    9.3056    4.5597   24.4196 C   0  0  0  0  0  0
    9.5745    5.3210   25.7128 C   0  0  0  0  0  0
    1.9118    4.1112   23.6729 N   0  0  0  0  0  0
   -0.1671    3.1646   23.5915 N   0  0  0  0  0  0
    1.1429    3.0381   23.6634 C   0  0  0  0  0  0
    5.9441   -1.1134   24.4095 C   0  0  0  0  0  0
    7.3591   -1.2036   24.5183 C   0  0  0  0  0  0
    8.1627   -0.0627   24.2607 C   0  0  0  0  0  0
    7.5601    1.1754   23.8912 C   0  0  0  0  0  0
    6.1348    1.2723   23.7780 C   0  0  0  0  0  0
    5.3221    0.1267   24.0379 C   0  0  0  0  0  0
    1.5408   -0.8295   23.7929 C   0  0  0  0  0  0
    2.9569   -0.9535   23.8990 C   0  0  0  0  0  0
    3.7753    0.2208   23.9265 C   0  0  0  0  0  0
    3.1656    1.5003   23.8470 C   0  0  0  0  0  0
    1.7585    1.6283   23.7439 C   0  0  0  0  0  0
    0.9411    0.4635   23.7152 C   0  0  0  0  0  0
    8.7136    2.7709   20.2646 H   0  0  0  0  0  0
    7.7163    5.3796   26.8586 H   0  0  0  0  0  0
    1.5072    5.0072   23.6210 H   0  0  0  0  0  0
   -0.5731    4.0599   23.5396 H   0  0  0  0  0  0
   -0.7396    2.3636   23.5897 H   0  0  0  0  0  0
  1  2  2  0  0  0
  1  3  1  0  0  0
  1 11  1  0  0  0
  3 30  1  0  0  0
  4  5  2  0  0  0
  4  9  1  0  0  0
  5  6  1  0  0  0
  6  7  2  0  0  0
  7  8  1  0  0  0
  7 10  1  0  0  0
  8  9  2  0  0  0
 10 14  1  0  0  0
 10 31  1  0  0  0
 11 12  1  0  0  0
 11 21  1  0  0  0
 12 13  1  0  0  0
 13 14  1  0  0  0
 15 17  2  0  0  0
 15 32  1  0  0  0
 16 17  1  0  0  0
 16 33  1  0  0  0
 16 34  1  0  0  0
 17 28  1  0  0  0
 18 19  2  0  0  0
 18 23  1  0  0  0
 19 20  1  0  0  0
 20 21  2  0  0  0
 21 22  1  0  0  0
 22 23  2  0  0  0
 23 26  1  0  0  0
 24 25  2  0  0  0
 24 29  1  0  0  0
 25 26  1  0  0  0
 26 27  2  0  0  0
 27 28  1  0  0  0
 28 29  2  0  0  0
M  END
>  <CHROM.0>
-61.03949106,69.03409747,-149.36074787,-179.22270770,170.13116130,10.26206786
-104.88914874,-31.22197334

>  <CHROM.1>
0.88839390,-30.74862238,-54.78096545,-87.72938265,-64.65995748,123.36472294
-154.90388652,-55.63540758,0.84859544,-13.74139428,5.95271174,3.30539625
24.09109904,-0.90031202,0.01676939,-2.98611694

>  <FORMUL>
      4PP    C23 H24 N4 O2

>  <HET>
 4PP  C 500      29

>  <HETNAM>
     4PP (2S)-(3'-AMIDINO-3-BIPHENYL)-5-(4-PYRIDYLAMINO)PENTANOI
   2 4PP C ACID

>  <Name>
4PP.pdb

>  <RI>
0

>  <Rbt.Current_Directory>
/home/malgorzata/Desktop/rDOCK_IFD/Wyniki/7_factor_Xa/IFD

>  <Rbt.Executable>
rbdock ($Id: //depot/dev/client3/rdock/2013.1/src/exe/rbdock.cxx#4 $)

>  <Rbt.Library>
libRbt.so (2013.1, Build901 2013/11/27)

>  <Rbt.Parameter_File>
/home/malgorzata/Desktop/rDock_2013.1_src/data/scripts/dock.prm

>  <Rbt.Receptor>
cavity.prm

>  <SCORE>
-21.622

>  <SCORE.INTER>
-14.9936

>  <SCORE.INTER.CONST>
1

>  <SCORE.INTER.POLAR>
-0.844788

>  <SCORE.INTER.REPUL>
0

>  <SCORE.INTER.ROT>
9

>  <SCORE.INTER.VDW>
-26.5213

>  <SCORE.INTER.norm>
-0.517021

>  <SCORE.INTRA>
-2.77405

>  <SCORE.INTRA.DIHEDRAL>
-4.09387

>  <SCORE.INTRA.DIHEDRAL.0>
20.1331

>  <SCORE.INTRA.POLAR>
0

>  <SCORE.INTRA.POLAR.0>
0

>  <SCORE.INTRA.REPUL>
0

>  <SCORE.INTRA.REPUL.0>
0

>  <SCORE.INTRA.VDW>
-0.727112

>  <SCORE.INTRA.VDW.0>
0.0644272

>  <SCORE.INTRA.norm>
-0.0956568

>  <SCORE.RESTR>
0

>  <SCORE.RESTR.CAVITY>
0

>  <SCORE.RESTR.norm>
0

>  <SCORE.SYSTEM>
-3.85437

>  <SCORE.SYSTEM.CONST>
0

>  <SCORE.SYSTEM.DIHEDRAL>
1.86964

>  <SCORE.SYSTEM.POLAR>
-0.487656

>  <SCORE.SYSTEM.REPUL>
0.00188484

>  <SCORE.SYSTEM.VDW>
-3.14058

>  <SCORE.SYSTEM.norm>
-0.132909

>  <SCORE.heavy>
29

>  <SCORE.norm>
-0.745587

$$$$
