4PP.pdb
  rDOCK(R)          3D
libRbt.so/2013.1/901 2013/11/27
 34 36  0  0  0  0  0  0  0  0999 V2000
    0.7919    2.2681   23.6223 C   0  0  0  0  0  0
    1.4783    2.7079   24.5552 O   0  0  0  0  0  0
    0.1488    1.0663   23.7467 O   0  0  0  0  0  0
    3.1678   10.7543   25.3680 N   0  0  0  0  0  0
    2.4675   10.5120   24.1700 C   0  0  0  0  0  0
    2.0232    9.2067   23.8737 C   0  0  0  0  0  0
    2.2792    8.1485   24.7698 C   0  0  0  0  0  0
    2.9855    8.3988   25.9799 C   0  0  0  0  0  0
    3.4248    9.6982   26.2713 C   0  0  0  0  0  0
    1.7929    6.7893   24.4133 N   0  0  0  0  0  0
    0.6658    3.0981   22.3290 C   0  0  0  0  0  0
    1.3142    4.4748   22.4952 C   0  0  0  0  0  0
    0.2695    5.3988   23.1134 C   0  0  0  0  0  0
    0.8526    6.7985   23.2716 C   0  0  0  0  0  0
    8.6879    0.2378   17.0008 N   0  0  0  0  0  0
    6.6680    0.7862   16.0824 N   0  0  0  0  0  0
    7.4181    0.5691   17.1442 C   0  0  0  0  0  0
    2.3947    0.8838   18.9604 C   0  0  0  0  0  0
    0.9952    1.1278   19.0210 C   0  0  0  0  0  0
    0.4491    1.8467   20.1159 C   0  0  0  0  0  0
    1.2955    2.3255   21.1585 C   0  0  0  0  0  0
    2.7066    2.0811   21.1042 C   0  0  0  0  0  0
    3.2605    1.3592   20.0030 C   0  0  0  0  0  0
    6.9884    0.7517   21.0062 C   0  0  0  0  0  0
    5.5873    0.9920   21.1127 C   0  0  0  0  0  0
    4.7897    1.0947   19.9283 C   0  0  0  0  0  0
    5.4049    0.9563   18.6565 C   0  0  0  0  0  0
    6.7965    0.7151   18.5461 C   0  0  0  0  0  0
    7.5934    0.6132   19.7209 C   0  0  0  0  0  0
   -0.3741    0.7396   23.0412 H   0  0  0  0  0  0
    2.0674    5.9709   24.8866 H   0  0  0  0  0  0
    9.0744    0.1474   16.0999 H   0  0  0  0  0  0
    7.0531    0.6963   15.1809 H   0  0  0  0  0  0
    5.7225    1.0383   16.1909 H   0  0  0  0  0  0
  1  2  2  0  0  0
  1  3  1  0  0  0
  1 11  1  0  0  0
  3 30  1  0  0  0
  4  5  2  0  0  0
  4  9  1  0  0  0
  5  6  1  0  0  0
  6  7  2  0  0  0
  7  8  1  0  0  0
  7 10  1  0  0  0
  8  9  2  0  0  0
 10 14  1  0  0  0
 10 31  1  0  0  0
 11 12  1  0  0  0
 11 21  1  0  0  0
 12 13  1  0  0  0
 13 14  1  0  0  0
 15 17  2  0  0  0
 15 32  1  0  0  0
 16 17  1  0  0  0
 16 33  1  0  0  0
 16 34  1  0  0  0
 17 28  1  0  0  0
 18 19  2  0  0  0
 18 23  1  0  0  0
 19 20  1  0  0  0
 20 21  2  0  0  0
 21 22  1  0  0  0
 22 23  2  0  0  0
 23 26  1  0  0  0
 24 25  2  0  0  0
 24 29  1  0  0  0
 25 26  1  0  0  0
 26 27  2  0  0  0
 27 28  1  0  0  0
 28 29  2  0  0  0
M  END
>  <CHROM.0>
-78.66804279,-60.67265851,177.59470751,-175.31486972,-61.32211405,-176.32065502
-38.97507380,123.53543436,0.98207703,106.14123463,-90.60148996

>  <CHROM.1>
179.58379164,-7.05516851,-11.88349992,-172.23587859,-85.82307503,112.79449491
-178.65316204,-74.87369852,-174.51984772,-151.89192816,3.23609721,3.64001613
21.66191299,1.98764473,0.40714530,0.52173273

>  <FORMUL>
      4PP    C23 H24 N4 O2

>  <HET>
 4PP  C 500      29

>  <HETNAM>
     4PP (2S)-(3'-AMIDINO-3-BIPHENYL)-5-(4-PYRIDYLAMINO)PENTANOI
   2 4PP C ACID

>  <Name>
4PP.pdb

>  <RI>
0

>  <Rbt.Current_Directory>
/home/malgorzata/Desktop/rDOCK_IFD/Wyniki/7_factor_Xa/IFD

>  <Rbt.Executable>
rbdock ($Id: //depot/dev/client3/rdock/2013.1/src/exe/rbdock.cxx#4 $)

>  <Rbt.Library>
libRbt.so (2013.1, Build901 2013/11/27)

>  <Rbt.Parameter_File>
/home/malgorzata/Desktop/rDock_2013.1_src/data/scripts/hard_docking.prm

>  <Rbt.Receptor>
cavity.prm

>  <SCORE>
-20.1862

>  <SCORE.INTER>
-14.7048

>  <SCORE.INTER.CONST>
1

>  <SCORE.INTER.POLAR>
-3.57659

>  <SCORE.INTER.REPUL>
0

>  <SCORE.INTER.ROT>
9

>  <SCORE.INTER.VDW>
-16.9444

>  <SCORE.INTER.norm>
-0.507062

>  <SCORE.INTRA>
-4.74942

>  <SCORE.INTRA.DIHEDRAL>
-11.6088

>  <SCORE.INTRA.DIHEDRAL.0>
20.1331

>  <SCORE.INTRA.POLAR>
0

>  <SCORE.INTRA.POLAR.0>
0

>  <SCORE.INTRA.REPUL>
0

>  <SCORE.INTRA.REPUL.0>
0

>  <SCORE.INTRA.VDW>
1.055

>  <SCORE.INTRA.VDW.0>
0.0644272

>  <SCORE.INTRA.norm>
-0.163773

>  <SCORE.RESTR>
0

>  <SCORE.RESTR.CAVITY>
0

>  <SCORE.RESTR.norm>
0

>  <SCORE.SYSTEM>
-0.731981

>  <SCORE.SYSTEM.CONST>
0

>  <SCORE.SYSTEM.DIHEDRAL>
2.22267

>  <SCORE.SYSTEM.POLAR>
-0.107074

>  <SCORE.SYSTEM.REPUL>
0.135904

>  <SCORE.SYSTEM.VDW>
-2.15878

>  <SCORE.SYSTEM.norm>
-0.0252407

>  <SCORE.heavy>
29

>  <SCORE.norm>
-0.696075

$$$$
4PP.pdb
  rDOCK(R)          3D
libRbt.so/2013.1/901 2013/11/27
 34 36  0  0  0  0  0  0  0  0999 V2000
    7.0997    8.3216   23.9018 C   0  0  0  0  0  0
    7.2727    8.9466   24.9574 O   0  0  0  0  0  0
    7.8570    7.2160   23.6234 O   0  0  0  0  0  0
    3.1106   13.1754   17.4719 N   0  0  0  0  0  0
    2.1369   13.1247   18.4887 C   0  0  0  0  0  0
    2.1909   12.0994   19.4554 C   0  0  0  0  0  0
    3.2123   11.1285   19.4051 C   0  0  0  0  0  0
    4.1948   11.1852   18.3770 C   0  0  0  0  0  0
    4.1382   12.2067   17.4182 C   0  0  0  0  0  0
    3.2268   10.0657   20.4450 N   0  0  0  0  0  0
    6.0150    8.8011   22.9164 C   0  0  0  0  0  0
    6.6166    9.0988   21.5407 C   0  0  0  0  0  0
    5.6378   10.0065   20.8021 C   0  0  0  0  0  0
    4.4223    9.1988   20.3614 C   0  0  0  0  0  0
    8.3350    3.0478   20.2449 N   0  0  0  0  0  0
    7.7538    0.8509   19.9995 N   0  0  0  0  0  0
    7.4413    2.0820   20.3513 C   0  0  0  0  0  0
    2.7969    5.8310   22.6662 C   0  0  0  0  0  0
    2.5234    7.1560   23.1041 C   0  0  0  0  0  0
    3.5736    8.1073   23.1792 C   0  0  0  0  0  0
    4.9042    7.7428   22.8194 C   0  0  0  0  0  0
    5.1866    6.4085   22.3791 C   0  0  0  0  0  0
    4.1320    5.4483   22.3007 C   0  0  0  0  0  0
    3.7214    1.6652   21.4105 C   0  0  0  0  0  0
    3.4174    2.9835   21.8596 C   0  0  0  0  0  0
    4.4238    4.0008   21.8171 C   0  0  0  0  0  0
    5.7179    3.6845   21.3270 C   0  0  0  0  0  0
    6.0237    2.3763   20.8774 C   0  0  0  0  0  0
    5.0266    1.3616   20.9188 C   0  0  0  0  0  0
    8.4894    6.9126   24.2447 H   0  0  0  0  0  0
    2.5167    9.9513   21.1172 H   0  0  0  0  0  0
    9.2380    2.8479   19.9074 H   0  0  0  0  0  0
    8.6564    0.6495   19.6617 H   0  0  0  0  0  0
    7.0847    0.1326   20.0744 H   0  0  0  0  0  0
  1  2  2  0  0  0
  1  3  1  0  0  0
  1 11  1  0  0  0
  3 30  1  0  0  0
  4  5  2  0  0  0
  4  9  1  0  0  0
  5  6  1  0  0  0
  6  7  2  0  0  0
  7  8  1  0  0  0
  7 10  1  0  0  0
  8  9  2  0  0  0
 10 14  1  0  0  0
 10 31  1  0  0  0
 11 12  1  0  0  0
 11 21  1  0  0  0
 12 13  1  0  0  0
 13 14  1  0  0  0
 15 17  2  0  0  0
 15 32  1  0  0  0
 16 17  1  0  0  0
 16 33  1  0  0  0
 16 34  1  0  0  0
 17 28  1  0  0  0
 18 19  2  0  0  0
 18 23  1  0  0  0
 19 20  1  0  0  0
 20 21  2  0  0  0
 21 22  1  0  0  0
 22 23  2  0  0  0
 23 26  1  0  0  0
 24 25  2  0  0  0
 24 29  1  0  0  0
 25 26  1  0  0  0
 26 27  2  0  0  0
 27 28  1  0  0  0
 28 29  2  0  0  0
M  END
>  <CHROM.0>
-67.08307205,-60.67265851,1.48397670,-178.87904608,-60.15365828,58.89371189
95.89843157,116.89192618,4.73876757,-81.57064725,-90.53423382

>  <CHROM.1>
2.02526874,122.52262500,-174.07374356,70.50887727,-160.27894988,120.05181649
-73.38507498,145.18187024,-3.99774526,-6.80647656,4.97570999,7.16103498,21.20490654
-2.05291730,0.97571167,-2.94103975

>  <FORMUL>
      4PP    C23 H24 N4 O2

>  <HET>
 4PP  C 500      29

>  <HETNAM>
     4PP (2S)-(3'-AMIDINO-3-BIPHENYL)-5-(4-PYRIDYLAMINO)PENTANOI
   2 4PP C ACID

>  <Name>
4PP.pdb

>  <RI>
0

>  <Rbt.Current_Directory>
/home/malgorzata/Desktop/rDOCK_IFD/Wyniki/7_factor_Xa/IFD

>  <Rbt.Executable>
rbdock ($Id: //depot/dev/client3/rdock/2013.1/src/exe/rbdock.cxx#4 $)

>  <Rbt.Library>
libRbt.so (2013.1, Build901 2013/11/27)

>  <Rbt.Parameter_File>
/home/malgorzata/Desktop/rDock_2013.1_src/data/scripts/hard_docking.prm

>  <Rbt.Receptor>
cavity.prm

>  <SCORE>
-6.06891

>  <SCORE.INTER>
-3.40997

>  <SCORE.INTER.CONST>
1

>  <SCORE.INTER.POLAR>
-0.138963

>  <SCORE.INTER.REPUL>
0

>  <SCORE.INTER.ROT>
9

>  <SCORE.INTER.VDW>
-17.3375

>  <SCORE.INTER.norm>
-0.117585

>  <SCORE.INTRA>
-4.70538

>  <SCORE.INTRA.DIHEDRAL>
-10.4881

>  <SCORE.INTRA.DIHEDRAL.0>
20.1331

>  <SCORE.INTRA.POLAR>
0

>  <SCORE.INTRA.POLAR.0>
0

>  <SCORE.INTRA.REPUL>
0

>  <SCORE.INTRA.REPUL.0>
0

>  <SCORE.INTRA.VDW>
0.538645

>  <SCORE.INTRA.VDW.0>
0.0644272

>  <SCORE.INTRA.norm>
-0.162255

>  <SCORE.RESTR>
3.1556

>  <SCORE.RESTR.CAVITY>
3.1556

>  <SCORE.RESTR.norm>
0.108814

>  <SCORE.SYSTEM>
-1.10916

>  <SCORE.SYSTEM.CONST>
0

>  <SCORE.SYSTEM.DIHEDRAL>
2.0705

>  <SCORE.SYSTEM.POLAR>
-0.0687067

>  <SCORE.SYSTEM.REPUL>
0.127841

>  <SCORE.SYSTEM.VDW>
-2.55002

>  <SCORE.SYSTEM.norm>
-0.038247

>  <SCORE.heavy>
29

>  <SCORE.norm>
-0.209273

$$$$
4PP.pdb
  rDOCK(R)          3D
libRbt.so/2013.1/901 2013/11/27
 34 36  0  0  0  0  0  0  0  0999 V2000
    5.5209    1.9995   18.3676 C   0  0  0  0  0  0
    5.8857    2.5394   17.3139 O   0  0  0  0  0  0
    6.2377    0.9584   18.8927 O   0  0  0  0  0  0
    0.9863   -0.8909   24.1640 N   0  0  0  0  0  0
    0.0215   -0.0828   23.5311 C   0  0  0  0  0  0
    0.0679    0.0928   22.1325 C   0  0  0  0  0  0
    1.0749   -0.5348   21.3707 C   0  0  0  0  0  0
    2.0463   -1.3518   22.0147 C   0  0  0  0  0  0
    1.9961   -1.5247   23.4053 C   0  0  0  0  0  0
    1.0843   -0.3184   19.8996 N   0  0  0  0  0  0
    4.2583    2.5243   19.0802 C   0  0  0  0  0  0
    3.4902    1.3810   19.7482 C   0  0  0  0  0  0
    3.0351    0.4316   18.6441 C   0  0  0  0  0  0
    2.3379   -0.7756   19.2613 C   0  0  0  0  0  0
    1.3927    6.3253   25.9514 N   0  0  0  0  0  0
    0.4816    8.4135   25.7670 N   0  0  0  0  0  0
    1.1646    7.4156   25.2427 C   0  0  0  0  0  0
    5.4586    5.5621   22.0077 C   0  0  0  0  0  0
    6.3879    4.5822   21.5625 C   0  0  0  0  0  0
    5.9868    3.6059   20.6141 C   0  0  0  0  0  0
    4.6552    3.5996   20.1046 C   0  0  0  0  0  0
    3.7133    4.5833   20.5508 C   0  0  0  0  0  0
    4.1135    5.5687   21.5043 C   0  0  0  0  0  0
    1.7492    8.6786   21.6101 C   0  0  0  0  0  0
    2.6742    7.7061   21.1298 C   0  0  0  0  0  0
    3.1042    6.6455   21.9899 C   0  0  0  0  0  0
    2.6034    6.5739   23.3162 C   0  0  0  0  0  0
    1.6822    7.5368   23.7969 C   0  0  0  0  0  0
    1.2527    8.5935   22.9456 C   0  0  0  0  0  0
    7.0040    0.6477   18.4520 H   0  0  0  0  0  0
    0.3362    0.0860   19.4036 H   0  0  0  0  0  0
    1.0570    6.2591   26.8745 H   0  0  0  0  0  0
    0.1453    8.3486   26.6900 H   0  0  0  0  0  0
    0.3078    9.2239   25.2356 H   0  0  0  0  0  0
  1  2  2  0  0  0
  1  3  1  0  0  0
  1 11  1  0  0  0
  3 30  1  0  0  0
  4  5  2  0  0  0
  4  9  1  0  0  0
  5  6  1  0  0  0
  6  7  2  0  0  0
  7  8  1  0  0  0
  7 10  1  0  0  0
  8  9  2  0  0  0
 10 14  1  0  0  0
 10 31  1  0  0  0
 11 12  1  0  0  0
 11 21  1  0  0  0
 12 13  1  0  0  0
 13 14  1  0  0  0
 15 17  2  0  0  0
 15 32  1  0  0  0
 16 17  1  0  0  0
 16 33  1  0  0  0
 16 34  1  0  0  0
 17 28  1  0  0  0
 18 19  2  0  0  0
 18 23  1  0  0  0
 19 20  1  0  0  0
 20 21  2  0  0  0
 21 22  1  0  0  0
 22 23  2  0  0  0
 23 26  1  0  0  0
 24 25  2  0  0  0
 24 29  1  0  0  0
 25 26  1  0  0  0
 26 27  2  0  0  0
 27 28  1  0  0  0
 28 29  2  0  0  0
M  END
>  <CHROM.0>
120.07193618,-60.67265851,-7.79993317,178.55319939,-178.29248443,-78.81651108
112.22617306,124.01055882,11.33455111,-114.47330746,103.45509938

>  <CHROM.1>
-0.41717708,145.22882809,167.44372935,-116.90939188,-62.67784631,-23.04967808
176.46504901,66.32849403,-11.11264508,108.46777395,2.92434733,3.38996886
21.55495707,-1.37807870,0.79599185,0.29816633

>  <FORMUL>
      4PP    C23 H24 N4 O2

>  <HET>
 4PP  C 500      29

>  <HETNAM>
     4PP (2S)-(3'-AMIDINO-3-BIPHENYL)-5-(4-PYRIDYLAMINO)PENTANOI
   2 4PP C ACID

>  <Name>
4PP.pdb

>  <RI>
0

>  <Rbt.Current_Directory>
/home/malgorzata/Desktop/rDOCK_IFD/Wyniki/7_factor_Xa/IFD

>  <Rbt.Executable>
rbdock ($Id: //depot/dev/client3/rdock/2013.1/src/exe/rbdock.cxx#4 $)

>  <Rbt.Library>
libRbt.so (2013.1, Build901 2013/11/27)

>  <Rbt.Parameter_File>
/home/malgorzata/Desktop/rDock_2013.1_src/data/scripts/hard_docking.prm

>  <Rbt.Receptor>
cavity.prm

>  <SCORE>
-13.4863

>  <SCORE.INTER>
-6.37089

>  <SCORE.INTER.CONST>
1

>  <SCORE.INTER.POLAR>
-2.29104

>  <SCORE.INTER.REPUL>
0

>  <SCORE.INTER.ROT>
9

>  <SCORE.INTER.VDW>
-12.9813

>  <SCORE.INTER.norm>
-0.219686

>  <SCORE.INTRA>
-5.63285

>  <SCORE.INTRA.DIHEDRAL>
-9.9955

>  <SCORE.INTRA.DIHEDRAL.0>
20.1331

>  <SCORE.INTRA.POLAR>
0

>  <SCORE.INTRA.POLAR.0>
0

>  <SCORE.INTRA.REPUL>
0

>  <SCORE.INTRA.REPUL.0>
0

>  <SCORE.INTRA.VDW>
-0.635103

>  <SCORE.INTRA.VDW.0>
0.0644272

>  <SCORE.INTRA.norm>
-0.194236

>  <SCORE.RESTR>
0.0399036

>  <SCORE.RESTR.CAVITY>
0.0399036

>  <SCORE.RESTR.norm>
0.00137598

>  <SCORE.SYSTEM>
-1.52246

>  <SCORE.SYSTEM.CONST>
0

>  <SCORE.SYSTEM.DIHEDRAL>
3.89006

>  <SCORE.SYSTEM.POLAR>
-0.509691

>  <SCORE.SYSTEM.REPUL>
0.181357

>  <SCORE.SYSTEM.VDW>
-2.64132

>  <SCORE.SYSTEM.norm>
-0.0524985

>  <SCORE.heavy>
29

>  <SCORE.norm>
-0.465045

$$$$
4PP.pdb
  rDOCK(R)          3D
libRbt.so/2013.1/901 2013/11/27
 34 36  0  0  0  0  0  0  0  0999 V2000
    1.6313    2.5860   19.7627 C   0  0  0  0  0  0
    0.4467    2.7854   20.0657 O   0  0  0  0  0  0
    2.0298    2.6573   18.4552 O   0  0  0  0  0  0
    4.2779   -0.4932   16.4374 N   0  0  0  0  0  0
    3.8906   -0.2141   17.7628 C   0  0  0  0  0  0
    4.3770    0.9451   18.4020 C   0  0  0  0  0  0
    5.2476    1.8202   17.7203 C   0  0  0  0  0  0
    5.6344    1.5348   16.3807 C   0  0  0  0  0  0
    5.1479    0.3817   15.7483 C   0  0  0  0  0  0
    5.7357    3.0286   18.4362 N   0  0  0  0  0  0
    2.6468    2.2685   20.8788 C   0  0  0  0  0  0
    3.4096    3.5269   21.3005 C   0  0  0  0  0  0
    4.2320    3.9849   20.1000 C   0  0  0  0  0  0
    5.3910    3.0206   19.8746 C   0  0  0  0  0  0
   -0.5565    7.2313   27.1732 N   0  0  0  0  0  0
    1.2333    6.7611   25.8315 N   0  0  0  0  0  0
    0.1508    6.3656   26.4711 C   0  0  0  0  0  0
    0.5764    0.3948   24.2614 C   0  0  0  0  0  0
    1.1949   -0.4050   23.2615 C   0  0  0  0  0  0
    1.8625    0.2142   22.1731 C   0  0  0  0  0  0
    1.9161    1.6354   22.0741 C   0  0  0  0  0  0
    1.2931    2.4470   23.0776 C   0  0  0  0  0  0
    0.6214    1.8277   24.1757 C   0  0  0  0  0  0
   -1.6274    2.9747   27.1590 C   0  0  0  0  0  0
   -1.0287    2.1473   26.1645 C   0  0  0  0  0  0
   -0.0511    2.6964   25.2745 C   0  0  0  0  0  0
    0.3124    4.0635   25.3920 C   0  0  0  0  0  0
   -0.2781    4.8888   26.3805 C   0  0  0  0  0  0
   -1.2513    4.3474   27.2668 C   0  0  0  0  0  0
    1.4045    2.8507   17.7847 H   0  0  0  0  0  0
    6.2349    3.7561   17.9995 H   0  0  0  0  0  0
   -0.2728    8.1727   27.2239 H   0  0  0  0  0  0
    1.5182    7.7022   25.8813 H   0  0  0  0  0  0
    1.7569    6.1156   25.3040 H   0  0  0  0  0  0
  1  2  2  0  0  0
  1  3  1  0  0  0
  1 11  1  0  0  0
  3 30  1  0  0  0
  4  5  2  0  0  0
  4  9  1  0  0  0
  5  6  1  0  0  0
  6  7  2  0  0  0
  7  8  1  0  0  0
  7 10  1  0  0  0
  8  9  2  0  0  0
 10 14  1  0  0  0
 10 31  1  0  0  0
 11 12  1  0  0  0
 11 21  1  0  0  0
 12 13  1  0  0  0
 13 14  1  0  0  0
 15 17  2  0  0  0
 15 32  1  0  0  0
 16 17  1  0  0  0
 16 33  1  0  0  0
 16 34  1  0  0  0
 17 28  1  0  0  0
 18 19  2  0  0  0
 18 23  1  0  0  0
 19 20  1  0  0  0
 20 21  2  0  0  0
 21 22  1  0  0  0
 22 23  2  0  0  0
 23 26  1  0  0  0
 24 25  2  0  0  0
 24 29  1  0  0  0
 25 26  1  0  0  0
 26 27  2  0  0  0
 27 28  1  0  0  0
 28 29  2  0  0  0
M  END
>  <CHROM.0>
46.51829508,-60.67265851,-176.60318943,61.81123006,-59.62366128,-78.39877102
-32.82327257,130.53605659,-161.15717033,100.69349995,-116.90472568

>  <CHROM.1>
-0.49194009,-97.23336534,9.29379834,-104.08033753,-64.51026414,94.82078845
-71.69667772,151.62272561,165.79669555,-17.88578098,2.04304351,2.65638840
21.91783113,0.70715318,-0.90927385,-2.66367549

>  <FORMUL>
      4PP    C23 H24 N4 O2

>  <HET>
 4PP  C 500      29

>  <HETNAM>
     4PP (2S)-(3'-AMIDINO-3-BIPHENYL)-5-(4-PYRIDYLAMINO)PENTANOI
   2 4PP C ACID

>  <Name>
4PP.pdb

>  <RI>
0

>  <Rbt.Current_Directory>
/home/malgorzata/Desktop/rDOCK_IFD/Wyniki/7_factor_Xa/IFD

>  <Rbt.Executable>
rbdock ($Id: //depot/dev/client3/rdock/2013.1/src/exe/rbdock.cxx#4 $)

>  <Rbt.Library>
libRbt.so (2013.1, Build901 2013/11/27)

>  <Rbt.Parameter_File>
/home/malgorzata/Desktop/rDock_2013.1_src/data/scripts/hard_docking.prm

>  <Rbt.Receptor>
cavity.prm

>  <SCORE>
-10.6624

>  <SCORE.INTER>
-5.62906

>  <SCORE.INTER.CONST>
1

>  <SCORE.INTER.POLAR>
-1.52511

>  <SCORE.INTER.REPUL>
0

>  <SCORE.INTER.ROT>
9

>  <SCORE.INTER.VDW>
-14.8437

>  <SCORE.INTER.norm>
-0.194105

>  <SCORE.INTRA>
-5.10409

>  <SCORE.INTRA.DIHEDRAL>
-11.0242

>  <SCORE.INTRA.DIHEDRAL.0>
20.1331

>  <SCORE.INTRA.POLAR>
0

>  <SCORE.INTRA.POLAR.0>
0

>  <SCORE.INTRA.REPUL>
0

>  <SCORE.INTRA.REPUL.0>
0

>  <SCORE.INTRA.VDW>
0.408019

>  <SCORE.INTRA.VDW.0>
0.0644272

>  <SCORE.INTRA.norm>
-0.176003

>  <SCORE.RESTR>
1.33024

>  <SCORE.RESTR.CAVITY>
1.33024

>  <SCORE.RESTR.norm>
0.0458704

>  <SCORE.SYSTEM>
-1.25951

>  <SCORE.SYSTEM.CONST>
0

>  <SCORE.SYSTEM.DIHEDRAL>
4.07048

>  <SCORE.SYSTEM.POLAR>
-0.64977

>  <SCORE.SYSTEM.REPUL>
0.0861825

>  <SCORE.SYSTEM.VDW>
-1.51645

>  <SCORE.SYSTEM.norm>
-0.0434314

>  <SCORE.heavy>
29

>  <SCORE.norm>
-0.36767

$$$$
4PP.pdb
  rDOCK(R)          3D
libRbt.so/2013.1/901 2013/11/27
 34 36  0  0  0  0  0  0  0  0999 V2000
    4.6360    2.9605   18.1916 C   0  0  0  0  0  0
    3.4860    3.3635   17.9686 O   0  0  0  0  0  0
    5.3939    2.4425   17.1765 O   0  0  0  0  0  0
    8.6453   -1.2185   17.0361 N   0  0  0  0  0  0
    9.8996   -0.7542   17.4786 C   0  0  0  0  0  0
    9.9624    0.2730   18.4428 C   0  0  0  0  0  0
    8.7773    0.8345   18.9610 C   0  0  0  0  0  0
    7.5125    0.3607   18.5122 C   0  0  0  0  0  0
    7.4542   -0.6614   17.5540 C   0  0  0  0  0  0
    8.8940    1.9165   19.9743 N   0  0  0  0  0  0
    5.2009    3.0618   19.6228 C   0  0  0  0  0  0
    6.5359    3.8108   19.6338 C   0  0  0  0  0  0
    7.2528    3.4453   20.9299 C   0  0  0  0  0  0
    7.7173    1.9946   20.8671 C   0  0  0  0  0  0
    0.5456   11.2014   23.4104 N   0  0  0  0  0  0
    0.3689    9.1317   24.3640 N   0  0  0  0  0  0
    0.8406    9.9147   23.4145 C   0  0  0  0  0  0
    2.2437    4.9548   22.2517 C   0  0  0  0  0  0
    2.4443    3.5475   22.2869 C   0  0  0  0  0  0
    3.4052    2.9481   21.4319 C   0  0  0  0  0  0
    4.1714    3.7485   20.5348 C   0  0  0  0  0  0
    3.9726    5.1672   20.4931 C   0  0  0  0  0  0
    3.0074    5.7747   21.3533 C   0  0  0  0  0  0
    3.1786    9.5419   20.3277 C   0  0  0  0  0  0
    3.3994    8.1336   20.3226 C   0  0  0  0  0  0
    2.7881    7.3126   21.3235 C   0  0  0  0  0  0
    1.9665    7.9119   22.3138 C   0  0  0  0  0  0
    1.7424    9.3107   22.3213 C   0  0  0  0  0  0
    2.3489   10.1309   21.3287 C   0  0  0  0  0  0
    6.2140    2.0312   17.3669 H   0  0  0  0  0  0
    9.6714    2.5167   20.0435 H   0  0  0  0  0  0
   -0.0317   11.5763   24.1143 H   0  0  0  0  0  0
   -0.2085    9.5052   25.0685 H   0  0  0  0  0  0
    0.5939    8.1732   24.3687 H   0  0  0  0  0  0
  1  2  2  0  0  0
  1  3  1  0  0  0
  1 11  1  0  0  0
  3 30  1  0  0  0
  4  5  2  0  0  0
  4  9  1  0  0  0
  5  6  1  0  0  0
  6  7  2  0  0  0
  7  8  1  0  0  0
  7 10  1  0  0  0
  8  9  2  0  0  0
 10 14  1  0  0  0
 10 31  1  0  0  0
 11 12  1  0  0  0
 11 21  1  0  0  0
 12 13  1  0  0  0
 13 14  1  0  0  0
 15 17  2  0  0  0
 15 32  1  0  0  0
 16 17  1  0  0  0
 16 33  1  0  0  0
 16 34  1  0  0  0
 17 28  1  0  0  0
 18 19  2  0  0  0
 18 23  1  0  0  0
 19 20  1  0  0  0
 20 21  2  0  0  0
 21 22  1  0  0  0
 22 23  2  0  0  0
 23 26  1  0  0  0
 24 25  2  0  0  0
 24 29  1  0  0  0
 25 26  1  0  0  0
 26 27  2  0  0  0
 27 28  1  0  0  0
 28 29  2  0  0  0
M  END
>  <CHROM.0>
-71.68298234,-60.67265851,-4.46101189,65.50635420,-176.68346179,-175.56016150
-26.82230492,123.26550100,11.18738066,-101.90754360,-107.14197578

>  <CHROM.1>
-171.54607853,-125.82459419,-153.71818100,-131.00124500,-160.12665104,103.22899475
70.46193514,74.86995983,-176.09352954,-171.57894242,4.76349604,4.48181805
20.32059611,0.95881312,-0.10596864,-2.76035980

>  <FORMUL>
      4PP    C23 H24 N4 O2

>  <HET>
 4PP  C 500      29

>  <HETNAM>
     4PP (2S)-(3'-AMIDINO-3-BIPHENYL)-5-(4-PYRIDYLAMINO)PENTANOI
   2 4PP C ACID

>  <Name>
4PP.pdb

>  <RI>
0

>  <Rbt.Current_Directory>
/home/malgorzata/Desktop/rDOCK_IFD/Wyniki/7_factor_Xa/IFD

>  <Rbt.Executable>
rbdock ($Id: //depot/dev/client3/rdock/2013.1/src/exe/rbdock.cxx#4 $)

>  <Rbt.Library>
libRbt.so (2013.1, Build901 2013/11/27)

>  <Rbt.Parameter_File>
/home/malgorzata/Desktop/rDock_2013.1_src/data/scripts/hard_docking.prm

>  <Rbt.Receptor>
cavity.prm

>  <SCORE>
-17.4741

>  <SCORE.INTER>
-11.5491

>  <SCORE.INTER.CONST>
1

>  <SCORE.INTER.POLAR>
-1.67946

>  <SCORE.INTER.REPUL>
0

>  <SCORE.INTER.ROT>
9

>  <SCORE.INTER.VDW>
-20.2389

>  <SCORE.INTER.norm>
-0.398246

>  <SCORE.INTRA>
-5.68771

>  <SCORE.INTRA.DIHEDRAL>
-10.4454

>  <SCORE.INTRA.DIHEDRAL.0>
20.1331

>  <SCORE.INTRA.POLAR>
0

>  <SCORE.INTRA.POLAR.0>
0

>  <SCORE.INTRA.REPUL>
0

>  <SCORE.INTRA.REPUL.0>
0

>  <SCORE.INTRA.VDW>
-0.464984

>  <SCORE.INTRA.VDW.0>
0.0644272

>  <SCORE.INTRA.norm>
-0.196128

>  <SCORE.RESTR>
0

>  <SCORE.RESTR.CAVITY>
0

>  <SCORE.RESTR.norm>
0

>  <SCORE.SYSTEM>
-0.237315

>  <SCORE.SYSTEM.CONST>
0

>  <SCORE.SYSTEM.DIHEDRAL>
2.52099

>  <SCORE.SYSTEM.POLAR>
-0.105409

>  <SCORE.SYSTEM.REPUL>
0.0995387

>  <SCORE.SYSTEM.VDW>
-1.63712

>  <SCORE.SYSTEM.norm>
-0.00818329

>  <SCORE.heavy>
29

>  <SCORE.norm>
-0.602557

$$$$
4PP.pdb
  rDOCK(R)          3D
libRbt.so/2013.1/901 2013/11/27
 34 36  0  0  0  0  0  0  0  0999 V2000
    7.0283    4.9023   21.3183 C   0  0  0  0  0  0
    7.7512    5.3736   22.2071 O   0  0  0  0  0  0
    7.5308    4.6854   20.0638 O   0  0  0  0  0  0
    0.6241    8.2049   26.3272 N   0  0  0  0  0  0
    0.9191    6.9761   25.7047 C   0  0  0  0  0  0
    1.8151    6.9432   24.6162 C   0  0  0  0  0  0
    2.4122    8.1330   24.1512 C   0  0  0  0  0  0
    2.1124    9.3717   24.7847 C   0  0  0  0  0  0
    1.2217    9.4002   25.8673 C   0  0  0  0  0  0
    3.3489    8.0485   22.9995 N   0  0  0  0  0  0
    5.5629    4.5555   21.6499 C   0  0  0  0  0  0
    4.5997    5.2963   20.7189 C   0  0  0  0  0  0
    4.4264    6.7075   21.2718 C   0  0  0  0  0  0
    3.4353    6.6861   22.4301 C   0  0  0  0  0  0
   -1.3820    0.8658   25.2208 N   0  0  0  0  0  0
   -0.3043    2.6918   24.3670 N   0  0  0  0  0  0
   -0.3879    1.3859   24.5250 C   0  0  0  0  0  0
    5.0504    0.2093   21.3546 C   0  0  0  0  0  0
    6.1817    0.8436   20.7715 C   0  0  0  0  0  0
    6.3358    2.2504   20.8756 C   0  0  0  0  0  0
    5.3615    3.0340   21.5606 C   0  0  0  0  0  0
    4.2182    2.4009   22.1487 C   0  0  0  0  0  0
    4.0600    0.9849   22.0475 C   0  0  0  0  0  0
    1.5493   -1.7472   23.2744 C   0  0  0  0  0  0
    2.6938   -1.1397   22.6801 C   0  0  0  0  0  0
    2.8292    0.2855   22.6878 C   0  0  0  0  0  0
    1.8186    1.0809   23.2887 C   0  0  0  0  0  0
    0.6807    0.4813   23.8826 C   0  0  0  0  0  0
    0.5415   -0.9351   23.8763 C   0  0  0  0  0  0
    8.4254    4.8909   19.8755 H   0  0  0  0  0  0
    3.8572    8.8172   22.6530 H   0  0  0  0  0  0
   -2.0592    1.4538   25.6268 H   0  0  0  0  0  0
   -0.9809    3.2810   24.7724 H   0  0  0  0  0  0
    0.4346    3.0780   23.8435 H   0  0  0  0  0  0
  1  2  2  0  0  0
  1  3  1  0  0  0
  1 11  1  0  0  0
  3 30  1  0  0  0
  4  5  2  0  0  0
  4  9  1  0  0  0
  5  6  1  0  0  0
  6  7  2  0  0  0
  7  8  1  0  0  0
  7 10  1  0  0  0
  8  9  2  0  0  0
 10 14  1  0  0  0
 10 31  1  0  0  0
 11 12  1  0  0  0
 11 21  1  0  0  0
 12 13  1  0  0  0
 13 14  1  0  0  0
 15 17  2  0  0  0
 15 32  1  0  0  0
 16 17  1  0  0  0
 16 33  1  0  0  0
 16 34  1  0  0  0
 17 28  1  0  0  0
 18 19  2  0  0  0
 18 23  1  0  0  0
 19 20  1  0  0  0
 20 21  2  0  0  0
 21 22  1  0  0  0
 22 23  2  0  0  0
 23 26  1  0  0  0
 24 25  2  0  0  0
 24 29  1  0  0  0
 25 26  1  0  0  0
 26 27  2  0  0  0
 27 28  1  0  0  0
 28 29  2  0  0  0
M  END
>  <CHROM.0>
-71.27084336,-60.67265851,10.04150826,60.95228348,179.92398756,61.11719541
-28.16515366,128.27821478,-165.07916809,-87.32405666,121.55361298

>  <CHROM.1>
0.19777944,123.07697930,4.51182518,-179.44140919,-81.66244505,-16.72602101
-79.73051257,176.58450121,-172.17767744,4.04608065,3.20786423,3.80072015
22.97284745,-1.52878912,-0.55824086,-2.96291133

>  <FORMUL>
      4PP    C23 H24 N4 O2

>  <HET>
 4PP  C 500      29

>  <HETNAM>
     4PP (2S)-(3'-AMIDINO-3-BIPHENYL)-5-(4-PYRIDYLAMINO)PENTANOI
   2 4PP C ACID

>  <Name>
4PP.pdb

>  <RI>
0

>  <Rbt.Current_Directory>
/home/malgorzata/Desktop/rDOCK_IFD/Wyniki/7_factor_Xa/IFD

>  <Rbt.Executable>
rbdock ($Id: //depot/dev/client3/rdock/2013.1/src/exe/rbdock.cxx#4 $)

>  <Rbt.Library>
libRbt.so (2013.1, Build901 2013/11/27)

>  <Rbt.Parameter_File>
/home/malgorzata/Desktop/rDock_2013.1_src/data/scripts/hard_docking.prm

>  <Rbt.Receptor>
cavity.prm

>  <SCORE>
-13.3771

>  <SCORE.INTER>
-9.36803

>  <SCORE.INTER.CONST>
1

>  <SCORE.INTER.POLAR>
0

>  <SCORE.INTER.REPUL>
0

>  <SCORE.INTER.ROT>
9

>  <SCORE.INTER.VDW>
-23.768

>  <SCORE.INTER.norm>
-0.323036

>  <SCORE.INTRA>
-4.68419

>  <SCORE.INTRA.DIHEDRAL>
-12.8457

>  <SCORE.INTRA.DIHEDRAL.0>
20.1331

>  <SCORE.INTRA.POLAR>
0

>  <SCORE.INTRA.POLAR.0>
0

>  <SCORE.INTRA.REPUL>
0

>  <SCORE.INTRA.REPUL.0>
0

>  <SCORE.INTRA.VDW>
1.73865

>  <SCORE.INTRA.VDW.0>
0.0644272

>  <SCORE.INTRA.norm>
-0.161524

>  <SCORE.RESTR>
0.985449

>  <SCORE.RESTR.CAVITY>
0.985449

>  <SCORE.RESTR.norm>
0.033981

>  <SCORE.SYSTEM>
-0.31037

>  <SCORE.SYSTEM.CONST>
0

>  <SCORE.SYSTEM.DIHEDRAL>
2.46283

>  <SCORE.SYSTEM.POLAR>
-0.138422

>  <SCORE.SYSTEM.REPUL>
0.081554

>  <SCORE.SYSTEM.VDW>
-1.47892

>  <SCORE.SYSTEM.norm>
-0.0107024

>  <SCORE.heavy>
29

>  <SCORE.norm>
-0.461281

$$$$
4PP.pdb
  rDOCK(R)          3D
libRbt.so/2013.1/901 2013/11/27
 34 36  0  0  0  0  0  0  0  0999 V2000
    5.4597    4.3635   19.5477 C   0  0  0  0  0  0
    4.5901    4.6142   18.7017 O   0  0  0  0  0  0
    6.7663    4.2123   19.1692 O   0  0  0  0  0  0
   10.2521    7.8513   24.8772 N   0  0  0  0  0  0
    9.4567    6.6973   24.7360 C   0  0  0  0  0  0
    8.2984    6.7427   23.9328 C   0  0  0  0  0  0
    7.9360    7.9363   23.2753 C   0  0  0  0  0  0
    8.7441    9.0990   23.4195 C   0  0  0  0  0  0
    9.8955    9.0496   24.2182 C   0  0  0  0  0  0
    6.7052    7.9361   22.4410 N   0  0  0  0  0  0
    5.0495    4.2360   21.0286 C   0  0  0  0  0  0
    4.1078    5.3717   21.4367 C   0  0  0  0  0  0
    4.9094    6.6687   21.3861 C   0  0  0  0  0  0
    6.0241    6.6232   22.4252 C   0  0  0  0  0  0
    4.8554    0.3672   15.3507 N   0  0  0  0  0  0
    4.0753   -1.6720   14.6740 N   0  0  0  0  0  0
    4.1419   -0.7192   15.5823 C   0  0  0  0  0  0
    3.2001    0.3300   21.7787 C   0  0  0  0  0  0
    3.5645    1.1757   22.8623 C   0  0  0  0  0  0
    4.1609    2.4374   22.6054 C   0  0  0  0  0  0
    4.3993    2.8633   21.2658 C   0  0  0  0  0  0
    4.0360    2.0147   20.1695 C   0  0  0  0  0  0
    3.4341    0.7444   20.4237 C   0  0  0  0  0  0
    1.6402   -1.9856   18.2786 C   0  0  0  0  0  0
    1.9840   -1.1507   19.3818 C   0  0  0  0  0  0
    3.0282   -0.1813   19.2437 C   0  0  0  0  0  0
    3.7127   -0.0619   18.0059 C   0  0  0  0  0  0
    3.3727   -0.8878   16.9062 C   0  0  0  0  0  0
    2.3359   -1.8537   17.0393 C   0  0  0  0  0  0
    7.4218    4.0258   19.8123 H   0  0  0  0  0  0
    6.3786    8.7254   21.9516 H   0  0  0  0  0  0
    5.3429    0.4640   14.5008 H   0  0  0  0  0  0
    4.5622   -1.5765   13.8237 H   0  0  0  0  0  0
    3.5387   -2.4793   14.8459 H   0  0  0  0  0  0
  1  2  2  0  0  0
  1  3  1  0  0  0
  1 11  1  0  0  0
  3 30  1  0  0  0
  4  5  2  0  0  0
  4  9  1  0  0  0
  5  6  1  0  0  0
  6  7  2  0  0  0
  7  8  1  0  0  0
  7 10  1  0  0  0
  8  9  2  0  0  0
 10 14  1  0  0  0
 10 31  1  0  0  0
 11 12  1  0  0  0
 11 21  1  0  0  0
 12 13  1  0  0  0
 13 14  1  0  0  0
 15 17  2  0  0  0
 15 32  1  0  0  0
 16 17  1  0  0  0
 16 33  1  0  0  0
 16 34  1  0  0  0
 17 28  1  0  0  0
 18 19  2  0  0  0
 18 23  1  0  0  0
 19 20  1  0  0  0
 20 21  2  0  0  0
 21 22  1  0  0  0
 22 23  2  0  0  0
 23 26  1  0  0  0
 24 25  2  0  0  0
 24 29  1  0  0  0
 25 26  1  0  0  0
 26 27  2  0  0  0
 27 28  1  0  0  0
 28 29  2  0  0  0
M  END
>  <CHROM.0>
18.76260851,-60.67265851,-177.45298033,-60.59292570,65.63800777,63.86983102
77.59870417,126.03536055,6.59382778,86.02173941,-82.55756102

>  <CHROM.1>
179.77660305,-45.29572529,-0.24330628,-171.50235833,-66.93978561,168.95558626
-64.23898257,-174.86803242,-16.86916177,25.44539660,5.21180719,3.25090132
20.43582971,-0.82757545,-0.87797403,-1.90183966

>  <FORMUL>
      4PP    C23 H24 N4 O2

>  <HET>
 4PP  C 500      29

>  <HETNAM>
     4PP (2S)-(3'-AMIDINO-3-BIPHENYL)-5-(4-PYRIDYLAMINO)PENTANOI
   2 4PP C ACID

>  <Name>
4PP.pdb

>  <RI>
0

>  <Rbt.Current_Directory>
/home/malgorzata/Desktop/rDOCK_IFD/Wyniki/7_factor_Xa/IFD

>  <Rbt.Executable>
rbdock ($Id: //depot/dev/client3/rdock/2013.1/src/exe/rbdock.cxx#4 $)

>  <Rbt.Library>
libRbt.so (2013.1, Build901 2013/11/27)

>  <Rbt.Parameter_File>
/home/malgorzata/Desktop/rDock_2013.1_src/data/scripts/hard_docking.prm

>  <Rbt.Receptor>
cavity.prm

>  <SCORE>
-15.0389

>  <SCORE.INTER>
-9.34646

>  <SCORE.INTER.CONST>
1

>  <SCORE.INTER.POLAR>
-1.13109

>  <SCORE.INTER.REPUL>
0

>  <SCORE.INTER.ROT>
9

>  <SCORE.INTER.VDW>
-19.9007

>  <SCORE.INTER.norm>
-0.322292

>  <SCORE.INTRA>
-4.06535

>  <SCORE.INTRA.DIHEDRAL>
-12.5018

>  <SCORE.INTRA.DIHEDRAL.0>
20.1331

>  <SCORE.INTRA.POLAR>
0

>  <SCORE.INTRA.POLAR.0>
0

>  <SCORE.INTRA.REPUL>
0

>  <SCORE.INTRA.REPUL.0>
0

>  <SCORE.INTRA.VDW>
2.18556

>  <SCORE.INTRA.VDW.0>
0.0644272

>  <SCORE.INTRA.norm>
-0.140184

>  <SCORE.RESTR>
0

>  <SCORE.RESTR.CAVITY>
0

>  <SCORE.RESTR.norm>
0

>  <SCORE.SYSTEM>
-1.62705

>  <SCORE.SYSTEM.CONST>
0

>  <SCORE.SYSTEM.DIHEDRAL>
2.32236

>  <SCORE.SYSTEM.POLAR>
-0.181358

>  <SCORE.SYSTEM.REPUL>
0.0867574

>  <SCORE.SYSTEM.VDW>
-2.60539

>  <SCORE.SYSTEM.norm>
-0.0561051

>  <SCORE.heavy>
29

>  <SCORE.norm>
-0.518581

$$$$
4PP.pdb
  rDOCK(R)          3D
libRbt.so/2013.1/901 2013/11/27
 34 36  0  0  0  0  0  0  0  0999 V2000
    3.0554    6.9811   21.7404 C   0  0  0  0  0  0
    2.7895    7.3894   22.8794 O   0  0  0  0  0  0
    2.1862    6.1514   21.0852 O   0  0  0  0  0  0
   -1.6632    6.3354   21.3871 N   0  0  0  0  0  0
   -0.9413    7.1764   22.2566 C   0  0  0  0  0  0
   -0.1276    8.1973   21.7232 C   0  0  0  0  0  0
   -0.0347    8.3756   20.3275 C   0  0  0  0  0  0
   -0.7676    7.5245   19.4533 C   0  0  0  0  0  0
   -1.5763    6.5112   19.9876 C   0  0  0  0  0  0
    0.8375    9.4641   19.8121 N   0  0  0  0  0  0
    4.3705    7.4296   21.0718 C   0  0  0  0  0  0
    4.3906    8.9460   20.8635 C   0  0  0  0  0  0
    3.2679    9.2869   19.8885 C   0  0  0  0  0  0
    2.0228    9.7006   20.6648 C   0  0  0  0  0  0
    4.5533   10.3853   27.2981 N   0  0  0  0  0  0
    5.9374   10.5084   29.1129 N   0  0  0  0  0  0
    5.7125   10.1230   27.8727 C   0  0  0  0  0  0
    7.7860    6.0625   23.4604 C   0  0  0  0  0  0
    7.4116    5.3714   22.2754 C   0  0  0  0  0  0
    6.3052    5.8251   21.5114 C   0  0  0  0  0  0
    5.5640    6.9705   21.9252 C   0  0  0  0  0  0
    5.9352    7.6703   23.1195 C   0  0  0  0  0  0
    7.0491    7.2177   23.8907 C   0  0  0  0  0  0
    9.1692    8.6716   26.8343 C   0  0  0  0  0  0
    8.8226    7.9707   25.6423 C   0  0  0  0  0  0
    7.4667    7.9724   25.1831 C   0  0  0  0  0  0
    6.4786    8.6740   25.9224 C   0  0  0  0  0  0
    6.8190    9.3739   27.1062 C   0  0  0  0  0  0
    8.1656    9.3740   27.5670 C   0  0  0  0  0  0
    1.4005    5.8669   21.5090 H   0  0  0  0  0  0
    0.6465    9.9728   18.9912 H   0  0  0  0  0  0
    3.8535   10.8647   27.7977 H   0  0  0  0  0  0
    5.2386   10.9880   29.6137 H   0  0  0  0  0  0
    6.8043   10.3168   29.5384 H   0  0  0  0  0  0
  1  2  2  0  0  0
  1  3  1  0  0  0
  1 11  1  0  0  0
  3 30  1  0  0  0
  4  5  2  0  0  0
  4  9  1  0  0  0
  5  6  1  0  0  0
  6  7  2  0  0  0
  7  8  1  0  0  0
  7 10  1  0  0  0
  8  9  2  0  0  0
 10 14  1  0  0  0
 10 31  1  0  0  0
 11 12  1  0  0  0
 11 21  1  0  0  0
 12 13  1  0  0  0
 13 14  1  0  0  0
 15 17  2  0  0  0
 15 32  1  0  0  0
 16 17  1  0  0  0
 16 33  1  0  0  0
 16 34  1  0  0  0
 17 28  1  0  0  0
 18 19  2  0  0  0
 18 23  1  0  0  0
 19 20  1  0  0  0
 20 21  2  0  0  0
 21 22  1  0  0  0
 22 23  2  0  0  0
 23 26  1  0  0  0
 24 25  2  0  0  0
 24 29  1  0  0  0
 25 26  1  0  0  0
 26 27  2  0  0  0
 27 28  1  0  0  0
 28 29  2  0  0  0
M  END
>  <CHROM.0>
-171.35075164,-60.67265851,-179.80390609,-60.32690203,-179.52613869,63.16089346
-97.64044808,123.68463573,-165.28223414,-118.14981480,-94.63544725

>  <CHROM.1>
-2.06869750,-62.82612152,32.93562910,112.45473257,-63.85876071,102.18264443
95.64463069,-155.97049718,-15.99369843,27.93991841,4.09661778,8.00937118
23.15595862,-2.47081486,-0.25416109,1.06696631

>  <FORMUL>
      4PP    C23 H24 N4 O2

>  <HET>
 4PP  C 500      29

>  <HETNAM>
     4PP (2S)-(3'-AMIDINO-3-BIPHENYL)-5-(4-PYRIDYLAMINO)PENTANOI
   2 4PP C ACID

>  <Name>
4PP.pdb

>  <RI>
0

>  <Rbt.Current_Directory>
/home/malgorzata/Desktop/rDOCK_IFD/Wyniki/7_factor_Xa/IFD

>  <Rbt.Executable>
rbdock ($Id: //depot/dev/client3/rdock/2013.1/src/exe/rbdock.cxx#4 $)

>  <Rbt.Library>
libRbt.so (2013.1, Build901 2013/11/27)

>  <Rbt.Parameter_File>
/home/malgorzata/Desktop/rDock_2013.1_src/data/scripts/hard_docking.prm

>  <Rbt.Receptor>
cavity.prm

>  <SCORE>
-10.0181

>  <SCORE.INTER>
-5.53025

>  <SCORE.INTER.CONST>
1

>  <SCORE.INTER.POLAR>
-0.669465

>  <SCORE.INTER.REPUL>
0

>  <SCORE.INTER.ROT>
9

>  <SCORE.INTER.VDW>
-17.6541

>  <SCORE.INTER.norm>
-0.190698

>  <SCORE.INTRA>
-3.57079

>  <SCORE.INTRA.DIHEDRAL>
-2.84295

>  <SCORE.INTRA.DIHEDRAL.0>
20.1331

>  <SCORE.INTRA.POLAR>
0

>  <SCORE.INTRA.POLAR.0>
0

>  <SCORE.INTRA.REPUL>
0

>  <SCORE.INTRA.REPUL.0>
0

>  <SCORE.INTRA.VDW>
-2.14931

>  <SCORE.INTRA.VDW.0>
0.0644272

>  <SCORE.INTRA.norm>
-0.123131

>  <SCORE.RESTR>
0.0932888

>  <SCORE.RESTR.CAVITY>
0.0932888

>  <SCORE.RESTR.norm>
0.00321686

>  <SCORE.SYSTEM>
-1.01036

>  <SCORE.SYSTEM.CONST>
0

>  <SCORE.SYSTEM.DIHEDRAL>
2.36868

>  <SCORE.SYSTEM.POLAR>
-0.108

>  <SCORE.SYSTEM.REPUL>
0.227923

>  <SCORE.SYSTEM.VDW>
-2.96712

>  <SCORE.SYSTEM.norm>
-0.0348401

>  <SCORE.heavy>
29

>  <SCORE.norm>
-0.345452

$$$$
4PP.pdb
  rDOCK(R)          3D
libRbt.so/2013.1/901 2013/11/27
 34 36  0  0  0  0  0  0  0  0999 V2000
    4.0575    4.5005   18.2988 C   0  0  0  0  0  0
    4.6602    3.4265   18.4324 O   0  0  0  0  0  0
    4.2109    5.2398   17.1572 O   0  0  0  0  0  0
    4.2657    0.6544   22.5154 N   0  0  0  0  0  0
    2.9181    1.0149   22.7111 C   0  0  0  0  0  0
    2.0589    1.1317   21.5989 C   0  0  0  0  0  0
    2.5449    0.8909   20.2972 C   0  0  0  0  0  0
    3.9068    0.5250   20.1050 C   0  0  0  0  0  0
    4.7576    0.4090   21.2135 C   0  0  0  0  0  0
    1.6019    1.0284   19.1558 N   0  0  0  0  0  0
    3.1274    4.9833   19.4300 C   0  0  0  0  0  0
    2.3142    3.8209   20.0052 C   0  0  0  0  0  0
    1.2692    3.4359   18.9625 C   0  0  0  0  0  0
    0.6174    2.1144   19.3537 C   0  0  0  0  0  0
    5.9302   10.4706   26.4035 N   0  0  0  0  0  0
    3.9456   10.6113   27.5288 N   0  0  0  0  0  0
    4.6135   10.3769   26.4169 C   0  0  0  0  0  0
    5.5619    6.9014   22.5338 C   0  0  0  0  0  0
    6.0932    5.8363   21.7557 C   0  0  0  0  0  0
    5.2951    5.2255   20.7539 C   0  0  0  0  0  0
    3.9610    5.6720   20.5227 C   0  0  0  0  0  0
    3.4192    6.7437   21.3048 C   0  0  0  0  0  0
    4.2197    7.3624   22.3132 C   0  0  0  0  0  0
    1.9549   10.2852   23.5784 C   0  0  0  0  0  0
    2.4502    9.2156   22.7767 C   0  0  0  0  0  0
    3.6467    8.5306   23.1623 C   0  0  0  0  0  0
    4.3294    8.9256   24.3425 C   0  0  0  0  0  0
    3.8395    9.9864   25.1435 C   0  0  0  0  0  0
    2.6509   10.6708   24.7634 C   0  0  0  0  0  0
    4.8598    4.9979   16.5261 H   0  0  0  0  0  0
    1.6299    0.4576   18.3541 H   0  0  0  0  0  0
    6.4142   10.7209   27.2234 H   0  0  0  0  0  0
    4.4284   10.8617   28.3495 H   0  0  0  0  0  0
    2.9641   10.5360   27.5386 H   0  0  0  0  0  0
  1  2  2  0  0  0
  1  3  1  0  0  0
  1 11  1  0  0  0
  3 30  1  0  0  0
  4  5  2  0  0  0
  4  9  1  0  0  0
  5  6  1  0  0  0
  6  7  2  0  0  0
  7  8  1  0  0  0
  7 10  1  0  0  0
  8  9  2  0  0  0
 10 14  1  0  0  0
 10 31  1  0  0  0
 11 12  1  0  0  0
 11 21  1  0  0  0
 12 13  1  0  0  0
 13 14  1  0  0  0
 15 17  2  0  0  0
 15 32  1  0  0  0
 16 17  1  0  0  0
 16 33  1  0  0  0
 16 34  1  0  0  0
 17 28  1  0  0  0
 18 19  2  0  0  0
 18 23  1  0  0  0
 19 20  1  0  0  0
 20 21  2  0  0  0
 21 22  1  0  0  0
 22 23  2  0  0  0
 23 26  1  0  0  0
 24 25  2  0  0  0
 24 29  1  0  0  0
 25 26  1  0  0  0
 26 27  2  0  0  0
 27 28  1  0  0  0
 28 29  2  0  0  0
M  END
>  <CHROM.0>
143.98544799,-60.67265851,-159.11321834,-65.09728221,-178.96586620,-174.40589363
104.08700644,132.04194425,4.27884654,-141.93466346,-60.07690617

>  <CHROM.1>
-8.46537259,-41.14668974,35.36329074,82.30855169,-72.07288863,-31.35486457
168.68720016,-71.32504321,43.65787644,165.42753787,3.59473514,5.48520495
21.76692783,2.45424608,1.43056939,2.85364678

>  <FORMUL>
      4PP    C23 H24 N4 O2

>  <HET>
 4PP  C 500      29

>  <HETNAM>
     4PP (2S)-(3'-AMIDINO-3-BIPHENYL)-5-(4-PYRIDYLAMINO)PENTANOI
   2 4PP C ACID

>  <Name>
4PP.pdb

>  <RI>
0

>  <Rbt.Current_Directory>
/home/malgorzata/Desktop/rDOCK_IFD/Wyniki/7_factor_Xa/IFD

>  <Rbt.Executable>
rbdock ($Id: //depot/dev/client3/rdock/2013.1/src/exe/rbdock.cxx#4 $)

>  <Rbt.Library>
libRbt.so (2013.1, Build901 2013/11/27)

>  <Rbt.Parameter_File>
/home/malgorzata/Desktop/rDock_2013.1_src/data/scripts/hard_docking.prm

>  <Rbt.Receptor>
cavity.prm

>  <SCORE>
-12.6152

>  <SCORE.INTER>
-9.5073

>  <SCORE.INTER.CONST>
1

>  <SCORE.INTER.POLAR>
-2.04467

>  <SCORE.INTER.REPUL>
0.0424704

>  <SCORE.INTER.ROT>
9

>  <SCORE.INTER.VDW>
-17.1678

>  <SCORE.INTER.norm>
-0.327838

>  <SCORE.INTRA>
-1.9429

>  <SCORE.INTRA.DIHEDRAL>
-2.25133

>  <SCORE.INTRA.DIHEDRAL.0>
20.1331

>  <SCORE.INTRA.POLAR>
0

>  <SCORE.INTRA.POLAR.0>
0

>  <SCORE.INTRA.REPUL>
0

>  <SCORE.INTRA.REPUL.0>
0

>  <SCORE.INTRA.VDW>
-0.817237

>  <SCORE.INTRA.VDW.0>
0.0644272

>  <SCORE.INTRA.norm>
-0.0669965

>  <SCORE.RESTR>
0

>  <SCORE.RESTR.CAVITY>
0

>  <SCORE.RESTR.norm>
0

>  <SCORE.SYSTEM>
-1.165

>  <SCORE.SYSTEM.CONST>
0

>  <SCORE.SYSTEM.DIHEDRAL>
2.91321

>  <SCORE.SYSTEM.POLAR>
-0.166775

>  <SCORE.SYSTEM.REPUL>
0.0605582

>  <SCORE.SYSTEM.VDW>
-2.35737

>  <SCORE.SYSTEM.norm>
-0.0401725

>  <SCORE.heavy>
29

>  <SCORE.norm>
-0.435007

$$$$
4PP.pdb
  rDOCK(R)          3D
libRbt.so/2013.1/901 2013/11/27
 34 36  0  0  0  0  0  0  0  0999 V2000
    3.2784    6.3642   20.2145 C   0  0  0  0  0  0
    2.3907    6.8866   20.9029 O   0  0  0  0  0  0
    3.0195    5.9907   18.9235 O   0  0  0  0  0  0
    3.1239    8.9911   27.2565 N   0  0  0  0  0  0
    4.4173    9.3049   26.7948 C   0  0  0  0  0  0
    4.6298    9.5369   25.4200 C   0  0  0  0  0  0
    3.5550    9.4540   24.5110 C   0  0  0  0  0  0
    2.2497    9.1385   24.9827 C   0  0  0  0  0  0
    2.0423    8.9095   26.3505 C   0  0  0  0  0  0
    3.8283    9.7047   23.0711 N   0  0  0  0  0  0
    4.6765    6.1528   20.8296 C   0  0  0  0  0  0
    4.8794    7.0511   22.0524 C   0  0  0  0  0  0
    5.2447    8.4412   21.5409 C   0  0  0  0  0  0
    5.2338    9.4327   22.6989 C   0  0  0  0  0  0
    3.2670   -2.6035   22.9798 N   0  0  0  0  0  0
    1.2557   -2.7813   24.0511 N   0  0  0  0  0  0
    2.1755   -2.0413   23.4648 C   0  0  0  0  0  0
    5.2686    1.9261   21.8419 C   0  0  0  0  0  0
    6.3338    2.6931   21.2949 C   0  0  0  0  0  0
    6.1290    4.0599   20.9731 C   0  0  0  0  0  0
    4.8596    4.6704   21.1933 C   0  0  0  0  0  0
    3.7815    3.9023   21.7425 C   0  0  0  0  0  0
    3.9839    2.5265   22.0693 C   0  0  0  0  0  0
    0.5643    1.4944   23.6548 C   0  0  0  0  0  0
    1.6049    2.2972   23.1027 C   0  0  0  0  0  0
    2.8256    1.6851   22.6728 C   0  0  0  0  0  0
    2.9872    0.2807   22.8019 C   0  0  0  0  0  0
    1.9547   -0.5212   23.3477 C   0  0  0  0  0  0
    0.7399    0.0832   23.7773 C   0  0  0  0  0  0
    3.6885    5.5810   18.4111 H   0  0  0  0  0  0
    3.1467   10.0183   22.4336 H   0  0  0  0  0  0
    3.3973   -3.5759   23.0604 H   0  0  0  0  0  0
    1.3847   -3.7539   24.1324 H   0  0  0  0  0  0
    0.4398   -2.3614   24.4077 H   0  0  0  0  0  0
  1  2  2  0  0  0
  1  3  1  0  0  0
  1 11  1  0  0  0
  3 30  1  0  0  0
  4  5  2  0  0  0
  4  9  1  0  0  0
  5  6  1  0  0  0
  6  7  2  0  0  0
  7  8  1  0  0  0
  7 10  1  0  0  0
  8  9  2  0  0  0
 10 14  1  0  0  0
 10 31  1  0  0  0
 11 12  1  0  0  0
 11 21  1  0  0  0
 12 13  1  0  0  0
 13 14  1  0  0  0
 15 17  2  0  0  0
 15 32  1  0  0  0
 16 17  1  0  0  0
 16 33  1  0  0  0
 16 34  1  0  0  0
 17 28  1  0  0  0
 18 19  2  0  0  0
 18 23  1  0  0  0
 19 20  1  0  0  0
 20 21  2  0  0  0
 21 22  1  0  0  0
 22 23  2  0  0  0
 23 26  1  0  0  0
 24 25  2  0  0  0
 24 29  1  0  0  0
 25 26  1  0  0  0
 26 27  2  0  0  0
 27 28  1  0  0  0
 28 29  2  0  0  0
M  END
>  <CHROM.0>
51.14821012,-60.67265851,171.92225638,-60.64247747,-60.55244974,179.16315579
-23.08710499,124.32077670,-158.04531633,93.05554052,-117.01715395

>  <CHROM.1>
-178.83554446,-19.24131333,25.12055595,125.22285926,-80.39799841,141.16316067
170.72268804,-73.67277167,-4.75330452,170.20544529,3.44450729,4.61352369
22.87854090,-1.23123446,-1.09037918,-2.74479717

>  <FORMUL>
      4PP    C23 H24 N4 O2

>  <HET>
 4PP  C 500      29

>  <HETNAM>
     4PP (2S)-(3'-AMIDINO-3-BIPHENYL)-5-(4-PYRIDYLAMINO)PENTANOI
   2 4PP C ACID

>  <Name>
4PP.pdb

>  <RI>
0

>  <Rbt.Current_Directory>
/home/malgorzata/Desktop/rDOCK_IFD/Wyniki/7_factor_Xa/IFD

>  <Rbt.Executable>
rbdock ($Id: //depot/dev/client3/rdock/2013.1/src/exe/rbdock.cxx#4 $)

>  <Rbt.Library>
libRbt.so (2013.1, Build901 2013/11/27)

>  <Rbt.Parameter_File>
/home/malgorzata/Desktop/rDock_2013.1_src/data/scripts/hard_docking.prm

>  <Rbt.Receptor>
cavity.prm

>  <SCORE>
-12.2335

>  <SCORE.INTER>
-6.98327

>  <SCORE.INTER.CONST>
1

>  <SCORE.INTER.POLAR>
0

>  <SCORE.INTER.REPUL>
0

>  <SCORE.INTER.ROT>
9

>  <SCORE.INTER.VDW>
-21.3833

>  <SCORE.INTER.norm>
-0.240802

>  <SCORE.INTRA>
-5.41921

>  <SCORE.INTRA.DIHEDRAL>
-10.9533

>  <SCORE.INTRA.DIHEDRAL.0>
20.1331

>  <SCORE.INTRA.POLAR>
0

>  <SCORE.INTRA.POLAR.0>
0

>  <SCORE.INTRA.REPUL>
0

>  <SCORE.INTRA.REPUL.0>
0

>  <SCORE.INTRA.VDW>
0.0574382

>  <SCORE.INTRA.VDW.0>
0.0644272

>  <SCORE.INTRA.norm>
-0.186869

>  <SCORE.RESTR>
1.01901

>  <SCORE.RESTR.CAVITY>
1.01901

>  <SCORE.RESTR.norm>
0.0351382

>  <SCORE.SYSTEM>
-0.850037

>  <SCORE.SYSTEM.CONST>
0

>  <SCORE.SYSTEM.DIHEDRAL>
2.76676

>  <SCORE.SYSTEM.POLAR>
-0.187421

>  <SCORE.SYSTEM.REPUL>
0.0943574

>  <SCORE.SYSTEM.VDW>
-2.06797

>  <SCORE.SYSTEM.norm>
-0.0293116

>  <SCORE.heavy>
29

>  <SCORE.norm>
-0.421845

$$$$
