4PP.pdb
  rDOCK(R)          3D
libRbt.so/2013.1/901 2013/11/27
 34 36  0  0  0  0  0  0  0  0999 V2000
    5.9231    7.0503   21.4682 C   0  0  0  0  0  0
    6.0819    7.3175   20.2690 O   0  0  0  0  0  0
    4.9022    7.6277   22.1738 O   0  0  0  0  0  0
    0.8319    3.8746   23.2717 N   0  0  0  0  0  0
    0.8782    2.6923   22.5072 C   0  0  0  0  0  0
    1.9405    2.4880   21.6025 C   0  0  0  0  0  0
    2.9509    3.4615   21.4615 C   0  0  0  0  0  0
    2.9007    4.6535   22.2376 C   0  0  0  0  0  0
    1.8432    4.8525   23.1367 C   0  0  0  0  0  0
    4.0496    3.2024   20.4936 N   0  0  0  0  0  0
    6.8832    6.0529   22.1471 C   0  0  0  0  0  0
    7.3326    4.9686   21.1643 C   0  0  0  0  0  0
    6.2883    3.8572   21.2032 C   0  0  0  0  0  0
    5.0412    4.2989   20.4457 C   0  0  0  0  0  0
   14.0817    6.5506   29.0097 N   0  0  0  0  0  0
   14.3815    6.7271   26.7506 N   0  0  0  0  0  0
   13.5791    6.6689   27.7947 C   0  0  0  0  0  0
   10.3308    8.2525   23.7331 C   0  0  0  0  0  0
    9.8752    8.4846   22.4062 C   0  0  0  0  0  0
    8.7579    7.7670   21.9061 C   0  0  0  0  0  0
    8.0884    6.8117   22.7258 C   0  0  0  0  0  0
    8.5439    6.5719   24.0633 C   0  0  0  0  0  0
    9.6674    7.2933   24.5712 C   0  0  0  0  0  0
    9.7413    6.6830   28.4306 C   0  0  0  0  0  0
    9.2482    6.9038   27.1114 C   0  0  0  0  0  0
   10.1659    7.0483   26.0222 C   0  0  0  0  0  0
   11.5617    6.9704   26.2685 C   0  0  0  0  0  0
   12.0561    6.7487   27.5775 C   0  0  0  0  0  0
   11.1474    6.6055   28.6635 C   0  0  0  0  0  0
    4.2983    8.1989   21.7414 H   0  0  0  0  0  0
    4.1105    2.3882   19.9435 H   0  0  0  0  0  0
   15.0567    6.5005   29.1364 H   0  0  0  0  0  0
   15.3567    6.6772   26.8758 H   0  0  0  0  0  0
   14.0055    6.8206   25.8455 H   0  0  0  0  0  0
  1  2  2  0  0  0
  1  3  1  0  0  0
  1 11  1  0  0  0
  3 30  1  0  0  0
  4  5  2  0  0  0
  4  9  1  0  0  0
  5  6  1  0  0  0
  6  7  2  0  0  0
  7  8  1  0  0  0
  7 10  1  0  0  0
  8  9  2  0  0  0
 10 14  1  0  0  0
 10 31  1  0  0  0
 11 12  1  0  0  0
 11 21  1  0  0  0
 12 13  1  0  0  0
 13 14  1  0  0  0
 15 17  2  0  0  0
 15 32  1  0  0  0
 16 17  1  0  0  0
 16 33  1  0  0  0
 16 34  1  0  0  0
 17 28  1  0  0  0
 18 19  2  0  0  0
 18 23  1  0  0  0
 19 20  1  0  0  0
 20 21  2  0  0  0
 21 22  1  0  0  0
 22 23  2  0  0  0
 23 26  1  0  0  0
 24 25  2  0  0  0
 24 29  1  0  0  0
 25 26  1  0  0  0
 26 27  2  0  0  0
 27 28  1  0  0  0
 28 29  2  0  0  0
M  END
>  <CHROM.0>
-82.83300036,173.30607101,-8.62467086,-63.88629564,-113.49217763,-179.99945966
52.57710358,62.04903466,-155.42336906

>  <CHROM.1>
2.62042785,-33.50203642,-179.90046616,103.79965128,-86.73176566,-47.69900911
75.38478689,179.73298158,175.56988905,137.69813835,7.53448709,5.94342817
23.76186022,-2.74420789,0.45281370,1.91094250

>  <FORMUL>
      4PP    C23 H24 N4 O2

>  <HET>
 4PP  C 500      29

>  <HETNAM>
     4PP (2S)-(3'-AMIDINO-3-BIPHENYL)-5-(4-PYRIDYLAMINO)PENTANOI
   2 4PP C ACID

>  <Name>
4PP.pdb

>  <RI>
0

>  <Rbt.Current_Directory>
/home/malgorzata/Desktop/rDOCK_IFD/Wyniki/7_factor_Xa/IFD

>  <Rbt.Executable>
rbdock ($Id: //depot/dev/client3/rdock/2013.1/src/exe/rbdock.cxx#4 $)

>  <Rbt.Library>
libRbt.so (2013.1, Build901 2013/11/27)

>  <Rbt.Parameter_File>
/home/malgorzata/Desktop/rDock_2013.1_src/data/scripts/dock.prm

>  <Rbt.Receptor>
cavity.prm

>  <SCORE>
-24.8482

>  <SCORE.INTER>
-16.8284

>  <SCORE.INTER.CONST>
1

>  <SCORE.INTER.POLAR>
-1.81069

>  <SCORE.INTER.REPUL>
0

>  <SCORE.INTER.ROT>
9

>  <SCORE.INTER.VDW>
-25.072

>  <SCORE.INTER.norm>
-0.580288

>  <SCORE.INTRA>
-5.47797

>  <SCORE.INTRA.DIHEDRAL>
-9.89992

>  <SCORE.INTRA.DIHEDRAL.0>
20.1331

>  <SCORE.INTRA.POLAR>
0

>  <SCORE.INTRA.POLAR.0>
0

>  <SCORE.INTRA.REPUL>
0

>  <SCORE.INTRA.REPUL.0>
0

>  <SCORE.INTRA.VDW>
-0.528007

>  <SCORE.INTRA.VDW.0>
0.0644272

>  <SCORE.INTRA.norm>
-0.188895

>  <SCORE.RESTR>
0

>  <SCORE.RESTR.CAVITY>
0

>  <SCORE.RESTR.norm>
0

>  <SCORE.SYSTEM>
-2.54186

>  <SCORE.SYSTEM.CONST>
0

>  <SCORE.SYSTEM.DIHEDRAL>
5.03092

>  <SCORE.SYSTEM.POLAR>
-1.21061

>  <SCORE.SYSTEM.VDW>
-0.941234

>  <SCORE.SYSTEM.norm>
-0.0876504

>  <SCORE.heavy>
29

>  <SCORE.norm>
-0.856834

$$$$
4PP.pdb
  rDOCK(R)          3D
libRbt.so/2013.1/901 2013/11/27
 34 36  0  0  0  0  0  0  0  0999 V2000
    7.5098    6.7891   20.7428 C   0  0  0  0  0  0
    7.1455    7.0918   19.5981 O   0  0  0  0  0  0
    8.5395    5.9065   20.9277 O   0  0  0  0  0  0
    4.5119    9.5768   18.4502 N   0  0  0  0  0  0
    3.7577    8.5849   19.1073 C   0  0  0  0  0  0
    3.8262    8.4726   20.5114 C   0  0  0  0  0  0
    4.6458    9.3465   21.2550 C   0  0  0  0  0  0
    5.4044   10.3483   20.5866 C   0  0  0  0  0  0
    5.3329   10.4573   19.1905 C   0  0  0  0  0  0
    4.6870    9.1883   22.7329 N   0  0  0  0  0  0
    6.7949    7.4284   21.9502 C   0  0  0  0  0  0
    6.0749    6.3673   22.7862 C   0  0  0  0  0  0
    5.2628    7.0993   23.8502 C   0  0  0  0  0  0
    4.1416    7.8900   23.1854 C   0  0  0  0  0  0
   14.3381    6.8150   25.7217 N   0  0  0  0  0  0
   14.3788    6.3388   27.9569 N   0  0  0  0  0  0
   13.7083    6.6766   26.8737 C   0  0  0  0  0  0
    9.6946    9.7065   24.3255 C   0  0  0  0  0  0
    9.0500   10.3036   23.2074 C   0  0  0  0  0  0
    8.1130    9.5556   22.4483 C   0  0  0  0  0  0
    7.8139    8.2064   22.7986 C   0  0  0  0  0  0
    8.4616    7.5983   23.9231 C   0  0  0  0  0  0
    9.4043    8.3482   24.6908 C   0  0  0  0  0  0
   10.0502    6.7440   28.1954 C   0  0  0  0  0  0
    9.3717    7.3309   27.0875 C   0  0  0  0  0  0
   10.1073    7.7030   25.9171 C   0  0  0  0  0  0
   11.5090    7.4832   25.8725 C   0  0  0  0  0  0
   12.1868    6.8980   26.9702 C   0  0  0  0  0  0
   11.4598    6.5275   28.1362 C   0  0  0  0  0  0
    8.9896    5.5500   20.1873 H   0  0  0  0  0  0
    5.0395    9.8743   23.3447 H   0  0  0  0  0  0
   15.3107    6.6710   25.6721 H   0  0  0  0  0  0
   15.3515    6.1943   27.9088 H   0  0  0  0  0  0
   13.9071    6.2308   28.8143 H   0  0  0  0  0  0
  1  2  2  0  0  0
  1  3  1  0  0  0
  1 11  1  0  0  0
  3 30  1  0  0  0
  4  5  2  0  0  0
  4  9  1  0  0  0
  5  6  1  0  0  0
  6  7  2  0  0  0
  7  8  1  0  0  0
  7 10  1  0  0  0
  8  9  2  0  0  0
 10 14  1  0  0  0
 10 31  1  0  0  0
 11 12  1  0  0  0
 11 21  1  0  0  0
 12 13  1  0  0  0
 13 14  1  0  0  0
 15 17  2  0  0  0
 15 32  1  0  0  0
 16 17  1  0  0  0
 16 33  1  0  0  0
 16 34  1  0  0  0
 17 28  1  0  0  0
 18 19  2  0  0  0
 18 23  1  0  0  0
 19 20  1  0  0  0
 20 21  2  0  0  0
 21 22  1  0  0  0
 22 23  2  0  0  0
 23 26  1  0  0  0
 24 25  2  0  0  0
 24 29  1  0  0  0
 25 26  1  0  0  0
 26 27  2  0  0  0
 27 28  1  0  0  0
 28 29  2  0  0  0
M  END
>  <CHROM.0>
113.64357919,-54.78228690,-176.03412552,-175.50567759,-119.78686108,-179.99945966
0.42528023,57.46387953,151.19770252

>  <CHROM.1>
1.97073817,116.30364533,15.89913318,116.19961644,-173.26210239,85.92546579
66.92901722,-83.87779532,-11.27644478,113.64966649,8.19146905,7.92015450
23.37649551,-2.40867095,-0.14841463,1.67900171

>  <FORMUL>
      4PP    C23 H24 N4 O2

>  <HET>
 4PP  C 500      29

>  <HETNAM>
     4PP (2S)-(3'-AMIDINO-3-BIPHENYL)-5-(4-PYRIDYLAMINO)PENTANOI
   2 4PP C ACID

>  <Name>
4PP.pdb

>  <RI>
0

>  <Rbt.Current_Directory>
/home/malgorzata/Desktop/rDOCK_IFD/Wyniki/7_factor_Xa/IFD

>  <Rbt.Executable>
rbdock ($Id: //depot/dev/client3/rdock/2013.1/src/exe/rbdock.cxx#4 $)

>  <Rbt.Library>
libRbt.so (2013.1, Build901 2013/11/27)

>  <Rbt.Parameter_File>
/home/malgorzata/Desktop/rDock_2013.1_src/data/scripts/dock.prm

>  <Rbt.Receptor>
cavity.prm

>  <SCORE>
-22.7002

>  <SCORE.INTER>
-13.8757

>  <SCORE.INTER.CONST>
1

>  <SCORE.INTER.POLAR>
-0.206037

>  <SCORE.INTER.REPUL>
0

>  <SCORE.INTER.ROT>
9

>  <SCORE.INTER.VDW>
-27.5752

>  <SCORE.INTER.norm>
-0.478473

>  <SCORE.INTRA>
-5.54091

>  <SCORE.INTRA.DIHEDRAL>
-8.46498

>  <SCORE.INTRA.DIHEDRAL.0>
20.1331

>  <SCORE.INTRA.POLAR>
0

>  <SCORE.INTRA.POLAR.0>
0

>  <SCORE.INTRA.REPUL>
0

>  <SCORE.INTRA.REPUL.0>
0

>  <SCORE.INTRA.VDW>
-1.30842

>  <SCORE.INTRA.VDW.0>
0.0644272

>  <SCORE.INTRA.norm>
-0.191066

>  <SCORE.RESTR>
0

>  <SCORE.RESTR.CAVITY>
0

>  <SCORE.RESTR.norm>
0

>  <SCORE.SYSTEM>
-3.28363

>  <SCORE.SYSTEM.CONST>
0

>  <SCORE.SYSTEM.DIHEDRAL>
1.86085

>  <SCORE.SYSTEM.POLAR>
-1.21061

>  <SCORE.SYSTEM.VDW>
-0.0979637

>  <SCORE.SYSTEM.norm>
-0.113228

>  <SCORE.heavy>
29

>  <SCORE.norm>
-0.782767

$$$$
4PP.pdb
  rDOCK(R)          3D
libRbt.so/2013.1/901 2013/11/27
 34 36  0  0  0  0  0  0  0  0999 V2000
    9.0004    9.0545   22.1974 C   0  0  0  0  0  0
    9.4878   10.0945   21.7331 O   0  0  0  0  0  0
    9.7418    7.9048   22.2397 O   0  0  0  0  0  0
    2.4280    5.0131   18.6125 N   0  0  0  0  0  0
    2.9285    6.2560   18.1777 C   0  0  0  0  0  0
    3.3195    7.2215   19.1284 C   0  0  0  0  0  0
    3.2093    6.9464   20.5070 C   0  0  0  0  0  0
    2.7048    5.6884   20.9412 C   0  0  0  0  0  0
    2.3179    4.7307   19.9928 C   0  0  0  0  0  0
    3.6322    7.9961   21.4715 N   0  0  0  0  0  0
    7.5552    9.0792   22.7345 C   0  0  0  0  0  0
    6.5588    8.6694   21.6471 C   0  0  0  0  0  0
    5.3999    9.6604   21.6941 C   0  0  0  0  0  0
    4.2618    9.1604   20.8114 C   0  0  0  0  0  0
   14.4869    6.1319   27.3734 N   0  0  0  0  0  0
   13.5998    6.7381   25.3559 N   0  0  0  0  0  0
   13.4463    6.4799   26.6393 C   0  0  0  0  0  0
    7.1748    6.4430   26.2195 C   0  0  0  0  0  0
    6.0786    6.6301   25.3334 C   0  0  0  0  0  0
    6.2156    7.4848   24.2089 C   0  0  0  0  0  0
    7.4468    8.1599   23.9619 C   0  0  0  0  0  0
    8.5548    7.9770   24.8524 C   0  0  0  0  0  0
    8.4214    7.1163   25.9846 C   0  0  0  0  0  0
   10.5463    6.6281   29.2279 C   0  0  0  0  0  0
    9.4250    6.8210   28.3691 C   0  0  0  0  0  0
    9.6177    6.9033   26.9529 C   0  0  0  0  0  0
   10.9277    6.7921   26.4175 C   0  0  0  0  0  0
   12.0446    6.5978   27.2671 C   0  0  0  0  0  0
   11.8578    6.5164   28.6757 C   0  0  0  0  0  0
   10.6089    7.8931   21.8848 H   0  0  0  0  0  0
    3.5066    7.9238   22.4453 H   0  0  0  0  0  0
   15.3780    6.0598   26.9612 H   0  0  0  0  0  0
   14.4904    6.6664   24.9424 H   0  0  0  0  0  0
   12.8239    7.0026   24.8107 H   0  0  0  0  0  0
  1  2  2  0  0  0
  1  3  1  0  0  0
  1 11  1  0  0  0
  3 30  1  0  0  0
  4  5  2  0  0  0
  4  9  1  0  0  0
  5  6  1  0  0  0
  6  7  2  0  0  0
  7  8  1  0  0  0
  7 10  1  0  0  0
  8  9  2  0  0  0
 10 14  1  0  0  0
 10 31  1  0  0  0
 11 12  1  0  0  0
 11 21  1  0  0  0
 12 13  1  0  0  0
 13 14  1  0  0  0
 15 17  2  0  0  0
 15 32  1  0  0  0
 16 17  1  0  0  0
 16 33  1  0  0  0
 16 34  1  0  0  0
 17 28  1  0  0  0
 18 19  2  0  0  0
 18 23  1  0  0  0
 19 20  1  0  0  0
 20 21  2  0  0  0
 21 22  1  0  0  0
 22 23  2  0  0  0
 23 26  1  0  0  0
 24 25  2  0  0  0
 24 29  1  0  0  0
 25 26  1  0  0  0
 26 27  2  0  0  0
 27 28  1  0  0  0
 28 29  2  0  0  0
M  END
>  <CHROM.0>
-88.08608040,88.41604218,-179.88062106,174.11714739,125.91241130,-179.99945966
-173.38114503,-80.85989774,158.47914361

>  <CHROM.1>
-2.50907249,92.84384955,-6.29075334,-142.80454683,-134.64691220,-148.08994171
-169.79109250,71.66156151,-171.39983567,-39.81569832,7.71295872,7.30227873
23.68533104,-0.61662769,-0.34834006,-1.10056170

>  <FORMUL>
      4PP    C23 H24 N4 O2

>  <HET>
 4PP  C 500      29

>  <HETNAM>
     4PP (2S)-(3'-AMIDINO-3-BIPHENYL)-5-(4-PYRIDYLAMINO)PENTANOI
   2 4PP C ACID

>  <Name>
4PP.pdb

>  <RI>
0

>  <Rbt.Current_Directory>
/home/malgorzata/Desktop/rDOCK_IFD/Wyniki/7_factor_Xa/IFD

>  <Rbt.Executable>
rbdock ($Id: //depot/dev/client3/rdock/2013.1/src/exe/rbdock.cxx#4 $)

>  <Rbt.Library>
libRbt.so (2013.1, Build901 2013/11/27)

>  <Rbt.Parameter_File>
/home/malgorzata/Desktop/rDock_2013.1_src/data/scripts/dock.prm

>  <Rbt.Receptor>
cavity.prm

>  <SCORE>
-18.8629

>  <SCORE.INTER>
-14.7227

>  <SCORE.INTER.CONST>
1

>  <SCORE.INTER.POLAR>
-2.18785

>  <SCORE.INTER.REPUL>
0

>  <SCORE.INTER.ROT>
9

>  <SCORE.INTER.VDW>
-21.684

>  <SCORE.INTER.norm>
-0.507681

>  <SCORE.INTRA>
-2.52482

>  <SCORE.INTRA.DIHEDRAL>
-7.73028

>  <SCORE.INTRA.DIHEDRAL.0>
20.1331

>  <SCORE.INTRA.POLAR>
0

>  <SCORE.INTRA.POLAR.0>
0

>  <SCORE.INTRA.REPUL>
0

>  <SCORE.INTRA.REPUL.0>
0

>  <SCORE.INTRA.VDW>
1.34032

>  <SCORE.INTRA.VDW.0>
0.0644272

>  <SCORE.INTRA.norm>
-0.0870628

>  <SCORE.RESTR>
0

>  <SCORE.RESTR.CAVITY>
0

>  <SCORE.RESTR.norm>
0

>  <SCORE.SYSTEM>
-1.61533

>  <SCORE.SYSTEM.CONST>
0

>  <SCORE.SYSTEM.DIHEDRAL>
5.1339

>  <SCORE.SYSTEM.POLAR>
-1.21061

>  <SCORE.SYSTEM.VDW>
-0.0661958

>  <SCORE.SYSTEM.norm>
-0.0557011

>  <SCORE.heavy>
29

>  <SCORE.norm>
-0.650445

$$$$
4PP.pdb
  rDOCK(R)          3D
libRbt.so/2013.1/901 2013/11/27
 34 36  0  0  0  0  0  0  0  0999 V2000
    7.7212    9.1539   21.1513 C   0  0  0  0  0  0
    8.0727    8.4106   20.2248 O   0  0  0  0  0  0
    7.8234   10.5126   21.0217 O   0  0  0  0  0  0
   12.9676    6.2911   27.7867 N   0  0  0  0  0  0
   13.7173    6.5194   26.6160 C   0  0  0  0  0  0
   13.2139    7.3854   25.6233 C   0  0  0  0  0  0
   11.9664    8.0189   25.7992 C   0  0  0  0  0  0
   11.2137    7.7865   26.9846 C   0  0  0  0  0  0
   11.7181    6.9255   27.9697 C   0  0  0  0  0  0
   11.4762    8.9217   24.7242 N   0  0  0  0  0  0
    7.1590    8.5267   22.4429 C   0  0  0  0  0  0
    7.8426    9.1135   23.6804 C   0  0  0  0  0  0
    9.3055    8.6825   23.6403 C   0  0  0  0  0  0
   10.0377    9.2404   24.8555 C   0  0  0  0  0  0
   -0.9553   10.3661   25.8856 N   0  0  0  0  0  0
   -1.4613    8.8981   27.5629 N   0  0  0  0  0  0
   -0.6566    9.2954   26.5976 C   0  0  0  0  0  0
    2.8194    9.1598   22.5298 C   0  0  0  0  0  0
    3.5811    9.5385   21.3903 C   0  0  0  0  0  0
    4.9842    9.3269   21.3748 C   0  0  0  0  0  0
    5.6371    8.7374   22.4968 C   0  0  0  0  0  0
    4.8753    8.3553   23.6490 C   0  0  0  0  0  0
    3.4625    8.5652   23.6680 C   0  0  0  0  0  0
    2.2379    6.7121   26.8835 C   0  0  0  0  0  0
    3.0336    7.0697   25.7560 C   0  0  0  0  0  0
    2.6242    8.1479   24.9078 C   0  0  0  0  0  0
    1.4261    8.8512   25.1994 C   0  0  0  0  0  0
    0.6337    8.5008   26.3203 C   0  0  0  0  0  0
    1.0363    7.4290   27.1656 C   0  0  0  0  0  0
    7.5715   11.0712   21.7306 H   0  0  0  0  0  0
   12.0478    9.2700   24.0023 H   0  0  0  0  0  0
   -1.7828   10.8660   26.0719 H   0  0  0  0  0  0
   -2.2891    9.3971   27.7504 H   0  0  0  0  0  0
   -1.2347    8.1024   28.0966 H   0  0  0  0  0  0
  1  2  2  0  0  0
  1  3  1  0  0  0
  1 11  1  0  0  0
  3 30  1  0  0  0
  4  5  2  0  0  0
  4  9  1  0  0  0
  5  6  1  0  0  0
  6  7  2  0  0  0
  7  8  1  0  0  0
  7 10  1  0  0  0
  8  9  2  0  0  0
 10 14  1  0  0  0
 10 31  1  0  0  0
 11 12  1  0  0  0
 11 21  1  0  0  0
 12 13  1  0  0  0
 13 14  1  0  0  0
 15 17  2  0  0  0
 15 32  1  0  0  0
 16 17  1  0  0  0
 16 33  1  0  0  0
 16 34  1  0  0  0
 17 28  1  0  0  0
 18 19  2  0  0  0
 18 23  1  0  0  0
 19 20  1  0  0  0
 20 21  2  0  0  0
 21 22  1  0  0  0
 22 23  2  0  0  0
 23 26  1  0  0  0
 24 25  2  0  0  0
 24 29  1  0  0  0
 25 26  1  0  0  0
 26 27  2  0  0  0
 27 28  1  0  0  0
 28 29  2  0  0  0
M  END
>  <CHROM.0>
107.14740980,-54.29103740,-173.32452935,69.67161154,-119.25554737,-179.99945966
-166.21608244,59.60897654,-162.22051043

>  <CHROM.1>
-178.86331218,130.86352292,165.13300292,-116.45206262,-65.90537929,5.41219284
-179.95321107,-174.51132596,-6.56588817,151.35324175,6.15328729,8.46471734
24.58633590,-0.01067682,0.09053766,-1.26891941

>  <FORMUL>
      4PP    C23 H24 N4 O2

>  <HET>
 4PP  C 500      29

>  <HETNAM>
     4PP (2S)-(3'-AMIDINO-3-BIPHENYL)-5-(4-PYRIDYLAMINO)PENTANOI
   2 4PP C ACID

>  <Name>
4PP.pdb

>  <RI>
0

>  <Rbt.Current_Directory>
/home/malgorzata/Desktop/rDOCK_IFD/Wyniki/7_factor_Xa/IFD

>  <Rbt.Executable>
rbdock ($Id: //depot/dev/client3/rdock/2013.1/src/exe/rbdock.cxx#4 $)

>  <Rbt.Library>
libRbt.so (2013.1, Build901 2013/11/27)

>  <Rbt.Parameter_File>
/home/malgorzata/Desktop/rDock_2013.1_src/data/scripts/dock.prm

>  <Rbt.Receptor>
cavity.prm

>  <SCORE>
-22.3282

>  <SCORE.INTER>
-14.0808

>  <SCORE.INTER.CONST>
1

>  <SCORE.INTER.POLAR>
-1.06792

>  <SCORE.INTER.REPUL>
0

>  <SCORE.INTER.ROT>
9

>  <SCORE.INTER.VDW>
-24.8499

>  <SCORE.INTER.norm>
-0.485544

>  <SCORE.INTRA>
-6.60772

>  <SCORE.INTRA.DIHEDRAL>
-13.7505

>  <SCORE.INTRA.DIHEDRAL.0>
20.1331

>  <SCORE.INTRA.POLAR>
0

>  <SCORE.INTRA.POLAR.0>
0

>  <SCORE.INTRA.REPUL>
0

>  <SCORE.INTRA.REPUL.0>
0

>  <SCORE.INTRA.VDW>
0.267547

>  <SCORE.INTRA.VDW.0>
0.0644272

>  <SCORE.INTRA.norm>
-0.227852

>  <SCORE.RESTR>
0

>  <SCORE.RESTR.CAVITY>
0

>  <SCORE.RESTR.norm>
0

>  <SCORE.SYSTEM>
-1.63968

>  <SCORE.SYSTEM.CONST>
0

>  <SCORE.SYSTEM.DIHEDRAL>
2.55297

>  <SCORE.SYSTEM.POLAR>
-1.21061

>  <SCORE.SYSTEM.REPUL>
0.241234

>  <SCORE.SYSTEM.VDW>
-0.00624531

>  <SCORE.SYSTEM.norm>
-0.0565407

>  <SCORE.heavy>
29

>  <SCORE.norm>
-0.769937

$$$$
4PP.pdb
  rDOCK(R)          3D
libRbt.so/2013.1/901 2013/11/27
 34 36  0  0  0  0  0  0  0  0999 V2000
    6.1400    3.6323   20.9658 C   0  0  0  0  0  0
    5.0755    3.3219   21.5184 O   0  0  0  0  0  0
    6.8422    2.7008   20.2498 O   0  0  0  0  0  0
    0.5469    9.8782   22.0270 N   0  0  0  0  0  0
    0.5556    8.5031   21.7211 C   0  0  0  0  0  0
    1.6403    7.9547   21.0059 C   0  0  0  0  0  0
    2.7103    8.7771   20.5969 C   0  0  0  0  0  0
    2.6977   10.1654   20.9101 C   0  0  0  0  0  0
    1.6179   10.7067   21.6223 C   0  0  0  0  0  0
    3.8306    8.1540   19.8435 N   0  0  0  0  0  0
    6.6529    5.0813   21.0883 C   0  0  0  0  0  0
    5.8860    6.0158   20.1493 C   0  0  0  0  0  0
    4.4022    5.8688   20.4721 C   0  0  0  0  0  0
    3.5825    6.7322   19.5199 C   0  0  0  0  0  0
   12.0407    7.0352   28.9097 N   0  0  0  0  0  0
   10.4138    5.4393   28.7349 N   0  0  0  0  0  0
   10.9669    6.5572   28.3087 C   0  0  0  0  0  0
    6.2558    6.3827   25.2582 C   0  0  0  0  0  0
    5.1750    5.7359   24.5982 C   0  0  0  0  0  0
    5.3173    5.3188   23.2494 C   0  0  0  0  0  0
    6.5384    5.5457   22.5493 C   0  0  0  0  0  0
    7.6307    6.1988   23.2082 C   0  0  0  0  0  0
    7.4921    6.6188   24.5665 C   0  0  0  0  0  0
   10.2508    9.2059   25.5510 C   0  0  0  0  0  0
    9.1647    8.5926   24.8608 C   0  0  0  0  0  0
    8.6717    7.3206   25.2946 C   0  0  0  0  0  0
    9.2720    6.6813   26.4109 C   0  0  0  0  0  0
   10.3500    7.2882   27.1012 C   0  0  0  0  0  0
   10.8441    8.5523   26.6728 C   0  0  0  0  0  0
    6.5210    1.8233   20.1809 H   0  0  0  0  0  0
    4.6498    8.6362   19.5875 H   0  0  0  0  0  0
   12.4263    6.5594   29.6806 H   0  0  0  0  0  0
   10.7983    4.9624   29.5056 H   0  0  0  0  0  0
    9.6161    5.0812   28.2825 H   0  0  0  0  0  0
  1  2  2  0  0  0
  1  3  1  0  0  0
  1 11  1  0  0  0
  3 30  1  0  0  0
  4  5  2  0  0  0
  4  9  1  0  0  0
  5  6  1  0  0  0
  6  7  2  0  0  0
  7  8  1  0  0  0
  7 10  1  0  0  0
  8  9  2  0  0  0
 10 14  1  0  0  0
 10 31  1  0  0  0
 11 12  1  0  0  0
 11 21  1  0  0  0
 12 13  1  0  0  0
 13 14  1  0  0  0
 15 17  2  0  0  0
 15 32  1  0  0  0
 16 17  1  0  0  0
 16 33  1  0  0  0
 16 34  1  0  0  0
 17 28  1  0  0  0
 18 19  2  0  0  0
 18 23  1  0  0  0
 19 20  1  0  0  0
 20 21  2  0  0  0
 21 22  1  0  0  0
 22 23  2  0  0  0
 23 26  1  0  0  0
 24 25  2  0  0  0
 24 29  1  0  0  0
 25 26  1  0  0  0
 26 27  2  0  0  0
 27 28  1  0  0  0
 28 29  2  0  0  0
M  END
>  <CHROM.0>
103.41941743,-57.09719342,171.81721327,-178.74503500,-117.31852345,-179.99945966
-4.10002400,-74.18972434,105.40611057

>  <CHROM.1>
-0.39890548,-77.39604458,5.38043937,-103.42575660,55.52645909,-47.57872212
-177.39640288,-69.26018091,174.40027311,-116.29393392,6.29103651,6.82514928
23.30760736,-2.83290715,-0.64741853,0.60741226

>  <FORMUL>
      4PP    C23 H24 N4 O2

>  <HET>
 4PP  C 500      29

>  <HETNAM>
     4PP (2S)-(3'-AMIDINO-3-BIPHENYL)-5-(4-PYRIDYLAMINO)PENTANOI
   2 4PP C ACID

>  <Name>
4PP.pdb

>  <RI>
0

>  <Rbt.Current_Directory>
/home/malgorzata/Desktop/rDOCK_IFD/Wyniki/7_factor_Xa/IFD

>  <Rbt.Executable>
rbdock ($Id: //depot/dev/client3/rdock/2013.1/src/exe/rbdock.cxx#4 $)

>  <Rbt.Library>
libRbt.so (2013.1, Build901 2013/11/27)

>  <Rbt.Parameter_File>
/home/malgorzata/Desktop/rDock_2013.1_src/data/scripts/dock.prm

>  <Rbt.Receptor>
cavity.prm

>  <SCORE>
-22.5089

>  <SCORE.INTER>
-16.4195

>  <SCORE.INTER.CONST>
1

>  <SCORE.INTER.POLAR>
-2.42409

>  <SCORE.INTER.REPUL>
0

>  <SCORE.INTER.ROT>
9

>  <SCORE.INTER.VDW>
-22.5776

>  <SCORE.INTER.norm>
-0.566189

>  <SCORE.INTRA>
-2.41567

>  <SCORE.INTRA.DIHEDRAL>
-10.3749

>  <SCORE.INTRA.DIHEDRAL.0>
20.1331

>  <SCORE.INTRA.POLAR>
0

>  <SCORE.INTRA.POLAR.0>
0

>  <SCORE.INTRA.REPUL>
0

>  <SCORE.INTRA.REPUL.0>
0

>  <SCORE.INTRA.VDW>
2.7718

>  <SCORE.INTRA.VDW.0>
0.0644272

>  <SCORE.INTRA.norm>
-0.083299

>  <SCORE.RESTR>
0

>  <SCORE.RESTR.CAVITY>
0

>  <SCORE.RESTR.norm>
0

>  <SCORE.SYSTEM>
-3.67373

>  <SCORE.SYSTEM.CONST>
0

>  <SCORE.SYSTEM.DIHEDRAL>
1.77623

>  <SCORE.SYSTEM.POLAR>
-1.21061

>  <SCORE.SYSTEM.VDW>
-0.445752

>  <SCORE.SYSTEM.norm>
-0.12668

>  <SCORE.heavy>
29

>  <SCORE.norm>
-0.776168

$$$$
4PP.pdb
  rDOCK(R)          3D
libRbt.so/2013.1/901 2013/11/27
 34 36  0  0  0  0  0  0  0  0999 V2000
    4.9511    8.7612   22.3247 C   0  0  0  0  0  0
    4.4176    9.6425   21.6366 O   0  0  0  0  0  0
    5.1098    7.4974   21.8240 O   0  0  0  0  0  0
    0.8225    4.5889   25.7337 N   0  0  0  0  0  0
    0.0899    5.7604   26.0081 C   0  0  0  0  0  0
    0.7610    6.9090   26.4762 C   0  0  0  0  0  0
    2.1575    6.8862   26.6706 C   0  0  0  0  0  0
    2.8935    5.7007   26.3901 C   0  0  0  0  0  0
    2.2226    4.5611   25.9239 C   0  0  0  0  0  0
    2.8205    8.1209   27.1675 N   0  0  0  0  0  0
    5.4409    9.1127   23.7439 C   0  0  0  0  0  0
    4.8162    8.1816   24.7861 C   0  0  0  0  0  0
    4.8897    8.8921   26.1341 C   0  0  0  0  0  0
    4.2939    7.9996   27.2171 C   0  0  0  0  0  0
   14.2345    6.3519   27.8965 N   0  0  0  0  0  0
   14.0376    6.8416   25.6725 N   0  0  0  0  0  0
   13.4861    6.6742   26.8578 C   0  0  0  0  0  0
    9.8240    8.9579   23.8077 C   0  0  0  0  0  0
    9.1399    9.5884   22.7323 C   0  0  0  0  0  0
    7.7216    9.6326   22.7248 C   0  0  0  0  0  0
    6.9761    9.0464   23.7893 C   0  0  0  0  0  0
    7.6596    8.4078   24.8751 C   0  0  0  0  0  0
    9.0873    8.3625   24.8872 C   0  0  0  0  0  0
    9.8738    6.6302   28.3009 C   0  0  0  0  0  0
    9.1500    7.2499   27.2406 C   0  0  0  0  0  0
    9.8403    7.6802   26.0626 C   0  0  0  0  0  0
   11.2428    7.4848   25.9630 C   0  0  0  0  0  0
   11.9656    6.8671   27.0132 C   0  0  0  0  0  0
   11.2836    6.4387   28.1866 C   0  0  0  0  0  0
    4.7904    7.2890   20.9681 H   0  0  0  0  0  0
    2.3312    8.9322   27.4350 H   0  0  0  0  0  0
   15.2052    6.2312   27.7852 H   0  0  0  0  0  0
   15.0082    6.7213   25.5598 H   0  0  0  0  0  0
   13.4791    7.0870   24.8998 H   0  0  0  0  0  0
  1  2  2  0  0  0
  1  3  1  0  0  0
  1 11  1  0  0  0
  3 30  1  0  0  0
  4  5  2  0  0  0
  4  9  1  0  0  0
  5  6  1  0  0  0
  6  7  2  0  0  0
  7  8  1  0  0  0
  7 10  1  0  0  0
  8  9  2  0  0  0
 10 14  1  0  0  0
 10 31  1  0  0  0
 11 12  1  0  0  0
 11 21  1  0  0  0
 12 13  1  0  0  0
 13 14  1  0  0  0
 15 17  2  0  0  0
 15 32  1  0  0  0
 16 17  1  0  0  0
 16 33  1  0  0  0
 16 34  1  0  0  0
 17 28  1  0  0  0
 18 19  2  0  0  0
 18 23  1  0  0  0
 19 20  1  0  0  0
 20 21  2  0  0  0
 21 22  1  0  0  0
 22 23  2  0  0  0
 23 26  1  0  0  0
 24 25  2  0  0  0
 24 29  1  0  0  0
 25 26  1  0  0  0
 26 27  2  0  0  0
 27 28  1  0  0  0
 28 29  2  0  0  0
M  END
>  <CHROM.0>
-86.75445746,-58.61305036,-172.69106728,-60.77601870,111.64017657,-179.99945966
-165.87830069,64.54866515,-171.68759521

>  <CHROM.1>
-1.91976800,124.40075431,-175.08216023,110.06914329,-158.28013011,44.49298804
-179.33081525,-80.58172871,166.57834337,170.91209746,6.91394311,7.54937183
25.40917422,-3.06988777,0.08346244,2.12528779

>  <FORMUL>
      4PP    C23 H24 N4 O2

>  <HET>
 4PP  C 500      29

>  <HETNAM>
     4PP (2S)-(3'-AMIDINO-3-BIPHENYL)-5-(4-PYRIDYLAMINO)PENTANOI
   2 4PP C ACID

>  <Name>
4PP.pdb

>  <RI>
0

>  <Rbt.Current_Directory>
/home/malgorzata/Desktop/rDOCK_IFD/Wyniki/7_factor_Xa/IFD

>  <Rbt.Executable>
rbdock ($Id: //depot/dev/client3/rdock/2013.1/src/exe/rbdock.cxx#4 $)

>  <Rbt.Library>
libRbt.so (2013.1, Build901 2013/11/27)

>  <Rbt.Parameter_File>
/home/malgorzata/Desktop/rDock_2013.1_src/data/scripts/dock.prm

>  <Rbt.Receptor>
cavity.prm

>  <SCORE>
-29.4089

>  <SCORE.INTER>
-20.8461

>  <SCORE.INTER.CONST>
1

>  <SCORE.INTER.POLAR>
-1.13695

>  <SCORE.INTER.REPUL>
0.0152805

>  <SCORE.INTER.ROT>
9

>  <SCORE.INTER.VDW>
-31.4569

>  <SCORE.INTER.norm>
-0.718831

>  <SCORE.INTRA>
-5.48505

>  <SCORE.INTRA.DIHEDRAL>
-12.3481

>  <SCORE.INTRA.DIHEDRAL.0>
20.1331

>  <SCORE.INTRA.POLAR>
0

>  <SCORE.INTRA.POLAR.0>
0

>  <SCORE.INTRA.REPUL>
0

>  <SCORE.INTRA.REPUL.0>
0

>  <SCORE.INTRA.VDW>
0.688973

>  <SCORE.INTRA.VDW.0>
0.0644272

>  <SCORE.INTRA.norm>
-0.18914

>  <SCORE.RESTR>
0

>  <SCORE.RESTR.CAVITY>
0

>  <SCORE.RESTR.norm>
0

>  <SCORE.SYSTEM>
-3.07776

>  <SCORE.SYSTEM.CONST>
0

>  <SCORE.SYSTEM.DIHEDRAL>
1.98025

>  <SCORE.SYSTEM.POLAR>
-1.21061

>  <SCORE.SYSTEM.VDW>
0.0482035

>  <SCORE.SYSTEM.norm>
-0.10613

>  <SCORE.heavy>
29

>  <SCORE.norm>
-1.0141

$$$$
4PP.pdb
  rDOCK(R)          3D
libRbt.so/2013.1/901 2013/11/27
 34 36  0  0  0  0  0  0  0  0999 V2000
    5.1527    7.5821   17.5946 C   0  0  0  0  0  0
    4.2312    8.1094   16.9562 O   0  0  0  0  0  0
    6.2303    7.0515   16.9386 O   0  0  0  0  0  0
    0.0896   10.8352   23.7278 N   0  0  0  0  0  0
   -0.7867   11.1616   22.6742 C   0  0  0  0  0  0
   -0.6676   10.4961   21.4365 C   0  0  0  0  0  0
    0.3237    9.5103   21.2524 C   0  0  0  0  0  0
    1.2054    9.1827   22.3206 C   0  0  0  0  0  0
    1.0831    9.8460   23.5499 C   0  0  0  0  0  0
    0.4119    8.8374   19.9293 N   0  0  0  0  0  0
    5.0711    7.5433   19.1339 C   0  0  0  0  0  0
    3.7130    7.0111   19.5980 C   0  0  0  0  0  0
    2.7230    8.1699   19.5326 C   0  0  0  0  0  0
    1.3356    7.6822   19.9346 C   0  0  0  0  0  0
    4.0215    0.5428   24.4807 N   0  0  0  0  0  0
    3.6927    2.7985   24.3126 N   0  0  0  0  0  0
    4.3521    1.7118   23.9640 C   0  0  0  0  0  0
    8.4023    5.1545   20.6950 C   0  0  0  0  0  0
    8.6386    6.4340   20.1214 C   0  0  0  0  0  0
    7.5517    7.1969   19.6213 C   0  0  0  0  0  0
    6.2217    6.6877   19.6885 C   0  0  0  0  0  0
    5.9771    5.3981   20.2638 C   0  0  0  0  0  0
    7.0683    4.6275   20.7697 C   0  0  0  0  0  0
    7.3542    0.8311   21.6521 C   0  0  0  0  0  0
    7.6167    2.0979   21.0532 C   0  0  0  0  0  0
    6.8154    3.2315   21.4031 C   0  0  0  0  0  0
    5.7644    3.0812   22.3453 C   0  0  0  0  0  0
    5.5016    1.8248   22.9447 C   0  0  0  0  0  0
    6.2950    0.6949   22.5991 C   0  0  0  0  0  0
    6.2775    7.0945   16.0037 H   0  0  0  0  0  0
   -0.0908    9.1296   19.1349 H   0  0  0  0  0  0
    3.2850    0.4827   25.1312 H   0  0  0  0  0  0
    2.9560    2.7399   24.9630 H   0  0  0  0  0  0
    3.9369    3.6689   23.9226 H   0  0  0  0  0  0
  1  2  2  0  0  0
  1  3  1  0  0  0
  1 11  1  0  0  0
  3 30  1  0  0  0
  4  5  2  0  0  0
  4  9  1  0  0  0
  5  6  1  0  0  0
  6  7  2  0  0  0
  7  8  1  0  0  0
  7 10  1  0  0  0
  8  9  2  0  0  0
 10 14  1  0  0  0
 10 31  1  0  0  0
 11 12  1  0  0  0
 11 21  1  0  0  0
 12 13  1  0  0  0
 13 14  1  0  0  0
 15 17  2  0  0  0
 15 32  1  0  0  0
 16 17  1  0  0  0
 16 33  1  0  0  0
 16 34  1  0  0  0
 17 28  1  0  0  0
 18 19  2  0  0  0
 18 23  1  0  0  0
 19 20  1  0  0  0
 20 21  2  0  0  0
 21 22  1  0  0  0
 22 23  2  0  0  0
 23 26  1  0  0  0
 24 25  2  0  0  0
 24 29  1  0  0  0
 25 26  1  0  0  0
 26 27  2  0  0  0
 27 28  1  0  0  0
 28 29  2  0  0  0
M  END
>  <CHROM.0>
133.07011499,174.23439121,171.04313947,-57.50295587,-115.49887282,-179.99945966
7.49489377,-71.13166739,-177.14018388

>  <CHROM.1>
0.66254172,49.51590928,-170.65039233,-91.36792074,-81.30755779,71.13979098
177.83814297,177.14968268,175.70307777,-47.00437463,4.27406938,6.07884590
21.00833181,-2.43159808,-0.62832377,2.44014803

>  <FORMUL>
      4PP    C23 H24 N4 O2

>  <HET>
 4PP  C 500      29

>  <HETNAM>
     4PP (2S)-(3'-AMIDINO-3-BIPHENYL)-5-(4-PYRIDYLAMINO)PENTANOI
   2 4PP C ACID

>  <Name>
4PP.pdb

>  <RI>
0

>  <Rbt.Current_Directory>
/home/malgorzata/Desktop/rDOCK_IFD/Wyniki/7_factor_Xa/IFD

>  <Rbt.Executable>
rbdock ($Id: //depot/dev/client3/rdock/2013.1/src/exe/rbdock.cxx#4 $)

>  <Rbt.Library>
libRbt.so (2013.1, Build901 2013/11/27)

>  <Rbt.Parameter_File>
/home/malgorzata/Desktop/rDock_2013.1_src/data/scripts/dock.prm

>  <Rbt.Receptor>
cavity.prm

>  <SCORE>
-13.3712

>  <SCORE.INTER>
-5.09814

>  <SCORE.INTER.CONST>
1

>  <SCORE.INTER.POLAR>
-1.48774

>  <SCORE.INTER.REPUL>
0

>  <SCORE.INTER.ROT>
9

>  <SCORE.INTER.VDW>
-14.4398

>  <SCORE.INTER.norm>
-0.175798

>  <SCORE.INTRA>
-4.55322

>  <SCORE.INTRA.DIHEDRAL>
-10.262

>  <SCORE.INTRA.DIHEDRAL.0>
20.1331

>  <SCORE.INTRA.POLAR>
0

>  <SCORE.INTRA.POLAR.0>
0

>  <SCORE.INTRA.REPUL>
0

>  <SCORE.INTRA.REPUL.0>
0

>  <SCORE.INTRA.VDW>
0.577767

>  <SCORE.INTRA.VDW.0>
0.0644272

>  <SCORE.INTRA.norm>
-0.157008

>  <SCORE.RESTR>
0

>  <SCORE.RESTR.CAVITY>
0

>  <SCORE.RESTR.norm>
0

>  <SCORE.SYSTEM>
-3.71982

>  <SCORE.SYSTEM.CONST>
0

>  <SCORE.SYSTEM.DIHEDRAL>
1.99535

>  <SCORE.SYSTEM.POLAR>
-1.21061

>  <SCORE.SYSTEM.VDW>
-0.601408

>  <SCORE.SYSTEM.norm>
-0.12827

>  <SCORE.heavy>
29

>  <SCORE.norm>
-0.461075

$$$$
4PP.pdb
  rDOCK(R)          3D
libRbt.so/2013.1/901 2013/11/27
 34 36  0  0  0  0  0  0  0  0999 V2000
    7.7736    6.7917   21.0047 C   0  0  0  0  0  0
    8.6138    7.0788   20.1409 O   0  0  0  0  0  0
    6.5210    7.3413   20.9575 O   0  0  0  0  0  0
   12.4340    6.3266   28.4570 N   0  0  0  0  0  0
   11.2825    5.5568   28.7140 C   0  0  0  0  0  0
   10.1123    5.7790   27.9589 C   0  0  0  0  0  0
   10.0927    6.7669   26.9529 C   0  0  0  0  0  0
   11.2593    7.5407   26.6958 C   0  0  0  0  0  0
   12.4211    7.3161   27.4481 C   0  0  0  0  0  0
    8.8354    6.9660   26.1845 N   0  0  0  0  0  0
    8.1567    5.8013   22.1227 C   0  0  0  0  0  0
    7.9427    6.4242   23.5045 C   0  0  0  0  0  0
    9.1443    7.3190   23.7920 C   0  0  0  0  0  0
    8.9608    8.0062   25.1404 C   0  0  0  0  0  0
    6.2217   -2.1904   16.5895 N   0  0  0  0  0  0
    4.6564   -0.7522   17.4297 N   0  0  0  0  0  0
    5.8934   -1.2065   17.4061 C   0  0  0  0  0  0
    5.7829    2.1347   21.7212 C   0  0  0  0  0  0
    5.3414    3.1914   22.5642 C   0  0  0  0  0  0
    6.1184    4.3727   22.6839 C   0  0  0  0  0  0
    7.3421    4.5071   21.9648 C   0  0  0  0  0  0
    7.7935    3.4450   21.1151 C   0  0  0  0  0  0
    7.0135    2.2548   20.9906 C   0  0  0  0  0  0
    9.2465   -0.4146   19.2126 C   0  0  0  0  0  0
    8.8457    0.6461   20.0766 C   0  0  0  0  0  0
    7.4878    1.0994   20.0664 C   0  0  0  0  0  0
    6.5522    0.4859   19.1927 C   0  0  0  0  0  0
    6.9455   -0.5702   18.3343 C   0  0  0  0  0  0
    8.2946   -1.0233   18.3404 C   0  0  0  0  0  0
    6.2999    7.9457   20.2764 H   0  0  0  0  0  0
    8.0080    6.4596   26.3526 H   0  0  0  0  0  0
    5.5409   -2.5894   16.0008 H   0  0  0  0  0  0
    3.9746   -1.1502   16.8415 H   0  0  0  0  0  0
    4.4141   -0.0150   18.0355 H   0  0  0  0  0  0
  1  2  2  0  0  0
  1  3  1  0  0  0
  1 11  1  0  0  0
  3 30  1  0  0  0
  4  5  2  0  0  0
  4  9  1  0  0  0
  5  6  1  0  0  0
  6  7  2  0  0  0
  7  8  1  0  0  0
  7 10  1  0  0  0
  8  9  2  0  0  0
 10 14  1  0  0  0
 10 31  1  0  0  0
 11 12  1  0  0  0
 11 21  1  0  0  0
 12 13  1  0  0  0
 13 14  1  0  0  0
 15 17  2  0  0  0
 15 32  1  0  0  0
 16 17  1  0  0  0
 16 33  1  0  0  0
 16 34  1  0  0  0
 17 28  1  0  0  0
 18 19  2  0  0  0
 18 23  1  0  0  0
 19 20  1  0  0  0
 20 21  2  0  0  0
 21 22  1  0  0  0
 22 23  2  0  0  0
 23 26  1  0  0  0
 24 25  2  0  0  0
 24 29  1  0  0  0
 25 26  1  0  0  0
 26 27  2  0  0  0
 27 28  1  0  0  0
 28 29  2  0  0  0
M  END
>  <CHROM.0>
160.29914770,172.87177543,-179.39006469,-177.89263998,115.70754296,-179.99945966
-168.00500923,56.58085514,-152.54467559

>  <CHROM.1>
-0.80011057,123.96781177,-178.57225628,101.34289676,-80.21275214,-93.58317789
178.03260479,59.51635992,179.83210479,-134.90284757,8.14792668,3.88985888
22.27623077,0.99752376,-0.92129864,0.37218468

>  <FORMUL>
      4PP    C23 H24 N4 O2

>  <HET>
 4PP  C 500      29

>  <HETNAM>
     4PP (2S)-(3'-AMIDINO-3-BIPHENYL)-5-(4-PYRIDYLAMINO)PENTANOI
   2 4PP C ACID

>  <Name>
4PP.pdb

>  <RI>
0

>  <Rbt.Current_Directory>
/home/malgorzata/Desktop/rDOCK_IFD/Wyniki/7_factor_Xa/IFD

>  <Rbt.Executable>
rbdock ($Id: //depot/dev/client3/rdock/2013.1/src/exe/rbdock.cxx#4 $)

>  <Rbt.Library>
libRbt.so (2013.1, Build901 2013/11/27)

>  <Rbt.Parameter_File>
/home/malgorzata/Desktop/rDock_2013.1_src/data/scripts/dock.prm

>  <Rbt.Receptor>
cavity.prm

>  <SCORE>
-26.3329

>  <SCORE.INTER>
-17.1683

>  <SCORE.INTER.CONST>
1

>  <SCORE.INTER.POLAR>
-0.800394

>  <SCORE.INTER.REPUL>
0

>  <SCORE.INTER.ROT>
9

>  <SCORE.INTER.VDW>
-28.847

>  <SCORE.INTER.norm>
-0.59201

>  <SCORE.INTRA>
-6.06426

>  <SCORE.INTRA.DIHEDRAL>
-12.453

>  <SCORE.INTRA.DIHEDRAL.0>
20.1331

>  <SCORE.INTRA.POLAR>
0

>  <SCORE.INTRA.POLAR.0>
0

>  <SCORE.INTRA.REPUL>
0

>  <SCORE.INTRA.REPUL.0>
0

>  <SCORE.INTRA.VDW>
0.16226

>  <SCORE.INTRA.VDW.0>
0.0644272

>  <SCORE.INTRA.norm>
-0.209112

>  <SCORE.RESTR>
0

>  <SCORE.RESTR.CAVITY>
0

>  <SCORE.RESTR.norm>
0

>  <SCORE.SYSTEM>
-3.10036

>  <SCORE.SYSTEM.CONST>
0

>  <SCORE.SYSTEM.DIHEDRAL>
2.08149

>  <SCORE.SYSTEM.POLAR>
-1.18149

>  <SCORE.SYSTEM.VDW>
-0.124037

>  <SCORE.SYSTEM.norm>
-0.106909

>  <SCORE.heavy>
29

>  <SCORE.norm>
-0.908031

$$$$
4PP.pdb
  rDOCK(R)          3D
libRbt.so/2013.1/901 2013/11/27
 34 36  0  0  0  0  0  0  0  0999 V2000
    4.5502    5.4815   19.5380 C   0  0  0  0  0  0
    3.5724    4.8242   19.1553 O   0  0  0  0  0  0
    4.8774    6.6560   18.9161 O   0  0  0  0  0  0
   10.1836   10.0369   24.6589 N   0  0  0  0  0  0
   10.4684    8.8828   25.4147 C   0  0  0  0  0  0
    9.7547    7.6923   25.1655 C   0  0  0  0  0  0
    8.7598    7.6561   24.1668 C   0  0  0  0  0  0
    8.4771    8.8243   23.4046 C   0  0  0  0  0  0
    9.1896   10.0058   23.6547 C   0  0  0  0  0  0
    8.0326    6.3788   23.9418 N   0  0  0  0  0  0
    5.3823    4.9627   20.7280 C   0  0  0  0  0  0
    4.8637    5.5335   22.0503 C   0  0  0  0  0  0
    5.9800    5.3852   23.0795 C   0  0  0  0  0  0
    7.0229    6.4764   22.8653 C   0  0  0  0  0  0
    6.4414   -2.1523   16.1150 N   0  0  0  0  0  0
    8.6450   -2.6461   15.7615 N   0  0  0  0  0  0
    7.7104   -2.0301   16.4575 C   0  0  0  0  0  0
    5.2565    0.5788   20.8030 C   0  0  0  0  0  0
    4.2312    1.3408   21.4276 C   0  0  0  0  0  0
    4.2835    2.7584   21.3947 C   0  0  0  0  0  0
    5.3600    3.4255   20.7400 C   0  0  0  0  0  0
    6.3974    2.6632   20.1103 C   0  0  0  0  0  0
    6.3477    1.2360   20.1397 C   0  0  0  0  0  0
    9.8086   -0.3607   19.2760 C   0  0  0  0  0  0
    8.8112    0.4184   19.9320 C   0  0  0  0  0  0
    7.4620    0.3981   19.4538 C   0  0  0  0  0  0
    7.1310   -0.3999   18.3275 C   0  0  0  0  0  0
    8.1185   -1.1777   17.6741 C   0  0  0  0  0  0
    9.4613   -1.1597   18.1454 C   0  0  0  0  0  0
    5.6390    7.1316   19.1839 H   0  0  0  0  0  0
    8.2048    5.5561   24.4545 H   0  0  0  0  0  0
    6.1924   -2.6998   15.3356 H   0  0  0  0  0  0
    8.3975   -3.1939   14.9819 H   0  0  0  0  0  0
    9.5905   -2.5583   16.0212 H   0  0  0  0  0  0
  1  2  2  0  0  0
  1  3  1  0  0  0
  1 11  1  0  0  0
  3 30  1  0  0  0
  4  5  2  0  0  0
  4  9  1  0  0  0
  5  6  1  0  0  0
  6  7  2  0  0  0
  7  8  1  0  0  0
  7 10  1  0  0  0
  8  9  2  0  0  0
 10 14  1  0  0  0
 10 31  1  0  0  0
 11 12  1  0  0  0
 11 21  1  0  0  0
 12 13  1  0  0  0
 13 14  1  0  0  0
 15 17  2  0  0  0
 15 32  1  0  0  0
 16 17  1  0  0  0
 16 33  1  0  0  0
 16 34  1  0  0  0
 17 28  1  0  0  0
 18 19  2  0  0  0
 18 23  1  0  0  0
 19 20  1  0  0  0
 20 21  2  0  0  0
 21 22  1  0  0  0
 22 23  2  0  0  0
 23 26  1  0  0  0
 24 25  2  0  0  0
 24 29  1  0  0  0
 25 26  1  0  0  0
 26 27  2  0  0  0
 27 28  1  0  0  0
 28 29  2  0  0  0
M  END
>  <CHROM.0>
-68.25694694,81.36325286,160.53232384,-177.98384870,-86.59222924,-179.99945966
9.87713576,56.84621883,-164.56435548

>  <CHROM.1>
-177.35877052,-91.62689488,-179.75674483,-157.06956578,-160.75551377,-86.03901890
78.01284718,175.37949415,-7.31327024,-114.55869917,7.09240079,3.54280606
20.73987225,1.48250586,-0.25650345,0.56168374

>  <FORMUL>
      4PP    C23 H24 N4 O2

>  <HET>
 4PP  C 500      29

>  <HETNAM>
     4PP (2S)-(3'-AMIDINO-3-BIPHENYL)-5-(4-PYRIDYLAMINO)PENTANOI
   2 4PP C ACID

>  <Name>
4PP.pdb

>  <RI>
0

>  <Rbt.Current_Directory>
/home/malgorzata/Desktop/rDOCK_IFD/Wyniki/7_factor_Xa/IFD

>  <Rbt.Executable>
rbdock ($Id: //depot/dev/client3/rdock/2013.1/src/exe/rbdock.cxx#4 $)

>  <Rbt.Library>
libRbt.so (2013.1, Build901 2013/11/27)

>  <Rbt.Parameter_File>
/home/malgorzata/Desktop/rDock_2013.1_src/data/scripts/dock.prm

>  <Rbt.Receptor>
cavity.prm

>  <SCORE>
-20.3128

>  <SCORE.INTER>
-14.7359

>  <SCORE.INTER.CONST>
1

>  <SCORE.INTER.POLAR>
-0.900567

>  <SCORE.INTER.REPUL>
0

>  <SCORE.INTER.ROT>
9

>  <SCORE.INTER.VDW>
-26.074

>  <SCORE.INTER.norm>
-0.508135

>  <SCORE.INTRA>
-4.41687

>  <SCORE.INTRA.DIHEDRAL>
-8.68034

>  <SCORE.INTRA.DIHEDRAL.0>
20.1331

>  <SCORE.INTRA.POLAR>
0

>  <SCORE.INTRA.POLAR.0>
0

>  <SCORE.INTRA.REPUL>
0

>  <SCORE.INTRA.REPUL.0>
0

>  <SCORE.INTRA.VDW>
-0.0766947

>  <SCORE.INTRA.VDW.0>
0.0644272

>  <SCORE.INTRA.norm>
-0.152306

>  <SCORE.RESTR>
0

>  <SCORE.RESTR.CAVITY>
0

>  <SCORE.RESTR.norm>
0

>  <SCORE.SYSTEM>
-1.16002

>  <SCORE.SYSTEM.CONST>
0

>  <SCORE.SYSTEM.DIHEDRAL>
4.32261

>  <SCORE.SYSTEM.POLAR>
-1.21061

>  <SCORE.SYSTEM.VDW>
0.794765

>  <SCORE.SYSTEM.norm>
-0.0400007

>  <SCORE.heavy>
29

>  <SCORE.norm>
-0.700441

$$$$
4PP.pdb
  rDOCK(R)          3D
libRbt.so/2013.1/901 2013/11/27
 34 36  0  0  0  0  0  0  0  0999 V2000
    4.6616    4.3462   21.4075 C   0  0  0  0  0  0
    3.8503    4.6738   20.5305 O   0  0  0  0  0  0
    4.2276    4.0445   22.6700 O   0  0  0  0  0  0
   10.4804    7.2148   26.1931 N   0  0  0  0  0  0
   10.5638    7.7090   24.8766 C   0  0  0  0  0  0
    9.3968    7.7977   24.0898 C   0  0  0  0  0  0
    8.1527    7.3928   24.6158 C   0  0  0  0  0  0
    8.0734    6.8960   25.9472 C   0  0  0  0  0  0
    9.2358    6.8102   26.7266 C   0  0  0  0  0  0
    6.9505    7.5030   23.7478 N   0  0  0  0  0  0
    6.1603    4.2737   21.0522 C   0  0  0  0  0  0
    6.9717    5.2635   21.8920 C   0  0  0  0  0  0
    6.5269    6.6682   21.4966 C   0  0  0  0  0  0
    7.2898    7.6987   22.3214 C   0  0  0  0  0  0
   11.1115   -3.4175   17.2288 N   0  0  0  0  0  0
   11.6679   -2.1809   19.0688 N   0  0  0  0  0  0
   10.8097   -2.4887   18.1170 C   0  0  0  0  0  0
    7.5999    0.1785   21.6818 C   0  0  0  0  0  0
    7.2596    1.0020   22.7900 C   0  0  0  0  0  0
    6.7939    2.3246   22.5721 C   0  0  0  0  0  0
    6.6661    2.8351   21.2471 C   0  0  0  0  0  0
    7.0093    2.0108   20.1261 C   0  0  0  0  0  0
    7.4770    0.6783   20.3410 C   0  0  0  0  0  0
    7.3288   -1.2215   16.9291 C   0  0  0  0  0  0
    6.9602   -0.3789   18.0182 C   0  0  0  0  0  0
    7.8446   -0.2281   19.1338 C   0  0  0  0  0  0
    9.0829   -0.9221   19.1436 C   0  0  0  0  0  0
    9.4543   -1.7586   18.0623 C   0  0  0  0  0  0
    8.5778   -1.9122   16.9516 C   0  0  0  0  0  0
    3.3170    4.1106   22.8807 H   0  0  0  0  0  0
    6.0274    7.4514   24.0862 H   0  0  0  0  0  0
   11.9808   -3.8776   17.2736 H   0  0  0  0  0  0
   12.5375   -2.6401   19.1149 H   0  0  0  0  0  0
   11.4394   -1.4917   19.7337 H   0  0  0  0  0  0
  1  2  2  0  0  0
  1  3  1  0  0  0
  1 11  1  0  0  0
  3 30  1  0  0  0
  4  5  2  0  0  0
  4  9  1  0  0  0
  5  6  1  0  0  0
  6  7  2  0  0  0
  7  8  1  0  0  0
  7 10  1  0  0  0
  8  9  2  0  0  0
 10 14  1  0  0  0
 10 31  1  0  0  0
 11 12  1  0  0  0
 11 21  1  0  0  0
 12 13  1  0  0  0
 13 14  1  0  0  0
 15 17  2  0  0  0
 15 32  1  0  0  0
 16 17  1  0  0  0
 16 33  1  0  0  0
 16 34  1  0  0  0
 17 28  1  0  0  0
 18 19  2  0  0  0
 18 23  1  0  0  0
 19 20  1  0  0  0
 20 21  2  0  0  0
 21 22  1  0  0  0
 22 23  2  0  0  0
 23 26  1  0  0  0
 24 25  2  0  0  0
 24 29  1  0  0  0
 25 26  1  0  0  0
 26 27  2  0  0  0
 27 28  1  0  0  0
 28 29  2  0  0  0
M  END
>  <CHROM.0>
-117.38020872,173.50000607,179.28992833,65.81052907,-134.34200871,-179.99945966
3.20458970,-74.05313167,-171.12789731

>  <CHROM.1>
-1.86475948,118.58411485,15.06935513,128.76288585,-65.17833787,-70.79012758
179.09901345,-62.55802026,170.39263550,130.78426259,7.84009177,2.89761691
21.36196570,1.69973803,-0.32992245,0.65178051

>  <FORMUL>
      4PP    C23 H24 N4 O2

>  <HET>
 4PP  C 500      29

>  <HETNAM>
     4PP (2S)-(3'-AMIDINO-3-BIPHENYL)-5-(4-PYRIDYLAMINO)PENTANOI
   2 4PP C ACID

>  <Name>
4PP.pdb

>  <RI>
0

>  <Rbt.Current_Directory>
/home/malgorzata/Desktop/rDOCK_IFD/Wyniki/7_factor_Xa/IFD

>  <Rbt.Executable>
rbdock ($Id: //depot/dev/client3/rdock/2013.1/src/exe/rbdock.cxx#4 $)

>  <Rbt.Library>
libRbt.so (2013.1, Build901 2013/11/27)

>  <Rbt.Parameter_File>
/home/malgorzata/Desktop/rDock_2013.1_src/data/scripts/dock.prm

>  <Rbt.Receptor>
cavity.prm

>  <SCORE>
-24.7913

>  <SCORE.INTER>
-16.47

>  <SCORE.INTER.CONST>
1

>  <SCORE.INTER.POLAR>
-0.956481

>  <SCORE.INTER.REPUL>
0.021156

>  <SCORE.INTER.ROT>
9

>  <SCORE.INTER.VDW>
-27.7237

>  <SCORE.INTER.norm>
-0.567931

>  <SCORE.INTRA>
-5.99863

>  <SCORE.INTRA.DIHEDRAL>
-12.1377

>  <SCORE.INTRA.DIHEDRAL.0>
20.1331

>  <SCORE.INTRA.POLAR>
0

>  <SCORE.INTRA.POLAR.0>
0

>  <SCORE.INTRA.REPUL>
0

>  <SCORE.INTRA.REPUL.0>
0

>  <SCORE.INTRA.VDW>
0.070208

>  <SCORE.INTRA.VDW.0>
0.0644272

>  <SCORE.INTRA.norm>
-0.206849

>  <SCORE.RESTR>
0

>  <SCORE.RESTR.CAVITY>
0

>  <SCORE.RESTR.norm>
0

>  <SCORE.SYSTEM>
-2.32269

>  <SCORE.SYSTEM.CONST>
0

>  <SCORE.SYSTEM.DIHEDRAL>
1.99162

>  <SCORE.SYSTEM.POLAR>
-1.21061

>  <SCORE.SYSTEM.REPUL>
0.238914

>  <SCORE.SYSTEM.VDW>
-0.396979

>  <SCORE.SYSTEM.norm>
-0.0800926

>  <SCORE.heavy>
29

>  <SCORE.norm>
-0.854873

$$$$
