4PP.pdb
  rDOCK(R)          3D
libRbt.so/2013.1/901 2013/11/27
 34 36  0  0  0  0  0  0  0  0999 V2000
    3.5366    0.1463   26.0930 C   0  0  0  0  0  0
    3.5203   -1.0903   26.0204 O   0  0  0  0  0  0
    3.8217    0.7635   27.2809 O   0  0  0  0  0  0
    0.3157    8.6137   23.6229 N   0  0  0  0  0  0
    0.0816    7.6511   24.6244 C   0  0  0  0  0  0
    0.1440    6.2796   24.3017 C   0  0  0  0  0  0
    0.4375    5.8725   22.9839 C   0  0  0  0  0  0
    0.6753    6.8489   21.9761 C   0  0  0  0  0  0
    0.6132    8.2115   22.3012 C   0  0  0  0  0  0
    0.4905    4.4156   22.6913 N   0  0  0  0  0  0
    3.2426    0.9750   24.8263 C   0  0  0  0  0  0
    2.1077    1.9718   25.0741 C   0  0  0  0  0  0
    1.7792    2.6298   23.7375 C   0  0  0  0  0  0
    0.6079    3.5898   23.9129 C   0  0  0  0  0  0
    6.9804   -0.0979   16.9018 N   0  0  0  0  0  0
    5.2300    1.0710   17.7931 N   0  0  0  0  0  0
    6.4492    0.5819   17.9010 C   0  0  0  0  0  0
    6.8894    3.0746   23.5883 C   0  0  0  0  0  0
    6.1628    3.5042   24.7326 C   0  0  0  0  0  0
    4.9852    2.8151   25.1228 C   0  0  0  0  0  0
    4.5238    1.6938   24.3730 C   0  0  0  0  0  0
    5.2506    1.2570   23.2176 C   0  0  0  0  0  0
    6.4373    1.9470   22.8223 C   0  0  0  0  0  0
    9.3587    0.8509   20.4693 C   0  0  0  0  0  0
    8.6551    1.2784   21.6330 C   0  0  0  0  0  0
    7.2387    1.4784   21.5765 C   0  0  0  0  0  0
    6.5479    1.2485   20.3578 C   0  0  0  0  0  0
    7.2427    0.8212   19.1995 C   0  0  0  0  0  0
    8.6510    0.6221   19.2510 C   0  0  0  0  0  0
    3.7768    1.6971   27.3465 H   0  0  0  0  0  0
    0.4516    4.0407   21.7818 H   0  0  0  0  0  0
    6.4638   -0.2445   16.0766 H   0  0  0  0  0  0
    4.7123    0.9252   16.9685 H   0  0  0  0  0  0
    4.8371    1.5822   18.5371 H   0  0  0  0  0  0
  1  2  2  0  0  0
  1  3  1  0  0  0
  1 11  1  0  0  0
  3 30  1  0  0  0
  4  5  2  0  0  0
  4  9  1  0  0  0
  5  6  1  0  0  0
  6  7  2  0  0  0
  7  8  1  0  0  0
  7 10  1  0  0  0
  8  9  2  0  0  0
 10 14  1  0  0  0
 10 31  1  0  0  0
 11 12  1  0  0  0
 11 21  1  0  0  0
 12 13  1  0  0  0
 13 14  1  0  0  0
 15 17  2  0  0  0
 15 32  1  0  0  0
 16 17  1  0  0  0
 16 33  1  0  0  0
 16 34  1  0  0  0
 17 28  1  0  0  0
 18 19  2  0  0  0
 18 23  1  0  0  0
 19 20  1  0  0  0
 20 21  2  0  0  0
 21 22  1  0  0  0
 22 23  2  0  0  0
 23 26  1  0  0  0
 24 25  2  0  0  0
 24 29  1  0  0  0
 25 26  1  0  0  0
 26 27  2  0  0  0
 27 28  1  0  0  0
 28 29  2  0  0  0
M  END
>  <CHROM.0>
-131.53046358,-179.03901504,15.40425414,56.32894736,63.83682361,27.51514709
-146.05788843,-13.95776126

>  <CHROM.1>
-175.88503675,125.65244688,-16.63414992,-128.48222234,-173.66981465,-73.64553967
177.42947809,168.35955201,-164.32950539,49.00424327,4.14840078,2.69096744
22.72768318,-2.99953802,0.76800383,-1.10003600

>  <FORMUL>
      4PP    C23 H24 N4 O2

>  <HET>
 4PP  C 500      29

>  <HETNAM>
     4PP (2S)-(3'-AMIDINO-3-BIPHENYL)-5-(4-PYRIDYLAMINO)PENTANOI
   2 4PP C ACID

>  <Name>
4PP.pdb

>  <RI>
2.04559e+07

>  <Rbt.Current_Directory>
/home/malgorzata/Desktop/rDOCK_IFD/Wyniki/7_factor_Xa/IFD

>  <Rbt.Executable>
rbdock ($Id: //depot/dev/client3/rdock/2013.1/src/exe/rbdock.cxx#4 $)

>  <Rbt.Library>
libRbt.so (2013.1, Build901 2013/11/27)

>  <Rbt.Parameter_File>
/home/malgorzata/Desktop/rDock_2013.1_src/data/scripts/dock.prm

>  <Rbt.Receptor>
cavity.prm

>  <SCORE>
-18.414

>  <SCORE.INTER>
-4.78593

>  <SCORE.INTER.CONST>
1

>  <SCORE.INTER.POLAR>
-0.792201

>  <SCORE.INTER.REPUL>
0.0148579

>  <SCORE.INTER.ROT>
9

>  <SCORE.INTER.VDW>
-16.5667

>  <SCORE.INTER.norm>
-0.165032

>  <SCORE.INTRA>
-5.36308

>  <SCORE.INTRA.DIHEDRAL>
-10.6114

>  <SCORE.INTRA.DIHEDRAL.0>
20.1331

>  <SCORE.INTRA.POLAR>
0

>  <SCORE.INTRA.POLAR.0>
0

>  <SCORE.INTRA.REPUL>
0

>  <SCORE.INTRA.REPUL.0>
0

>  <SCORE.INTRA.VDW>
-0.0573615

>  <SCORE.INTRA.VDW.0>
0.0644272

>  <SCORE.INTRA.norm>
-0.184934

>  <SCORE.RESTR>
0.0770422

>  <SCORE.RESTR.CAVITY>
0.0770422

>  <SCORE.RESTR.norm>
0.00265663

>  <SCORE.SYSTEM>
-8.34207

>  <SCORE.SYSTEM.CONST>
0

>  <SCORE.SYSTEM.DIHEDRAL>
3.18778

>  <SCORE.SYSTEM.POLAR>
-3.13989

>  <SCORE.SYSTEM.REPUL>
0.0730858

>  <SCORE.SYSTEM.VDW>
0.374259

>  <SCORE.SYSTEM.norm>
-0.287657

>  <SCORE.heavy>
29

>  <SCORE.norm>
-0.634967

$$$$
4PP.pdb
  rDOCK(R)          3D
libRbt.so/2013.1/901 2013/11/27
 34 36  0  0  0  0  0  0  0  0999 V2000
    1.7461    2.7796   25.5607 C   0  0  0  0  0  0
    0.9726    1.9846   26.1123 O   0  0  0  0  0  0
    1.3094    3.5595   24.5242 O   0  0  0  0  0  0
    4.2240    4.0280   19.6877 N   0  0  0  0  0  0
    3.2540    3.6640   20.6422 C   0  0  0  0  0  0
    3.5573    2.6776   21.6034 C   0  0  0  0  0  0
    4.8235    2.0570   21.6094 C   0  0  0  0  0  0
    5.8008    2.4297   20.6441 C   0  0  0  0  0  0
    5.4956    3.4115   19.6907 C   0  0  0  0  0  0
    5.0963    1.0213   22.6409 N   0  0  0  0  0  0
    3.1993    2.8834   26.0658 C   0  0  0  0  0  0
    4.1879    2.4267   24.9899 C   0  0  0  0  0  0
    4.0175    0.9196   24.8249 C   0  0  0  0  0  0
    3.8735    0.5790   23.3459 C   0  0  0  0  0  0
    9.1130    9.8532   23.5455 N   0  0  0  0  0  0
    7.1208    9.0257   22.7898 N   0  0  0  0  0  0
    8.0446    9.0993   23.7271 C   0  0  0  0  0  0
    3.9534    7.0085   27.3523 C   0  0  0  0  0  0
    2.6852    6.4043   27.5732 C   0  0  0  0  0  0
    2.4551    5.0685   27.1530 C   0  0  0  0  0  0
    3.4881    4.3271   26.5082 C   0  0  0  0  0  0
    4.7678    4.9311   26.2810 C   0  0  0  0  0  0
    5.0040    6.2749   26.7038 C   0  0  0  0  0  0
    8.7032    7.4406   27.1837 C   0  0  0  0  0  0
    7.4456    6.8159   27.4293 C   0  0  0  0  0  0
    6.3895    6.9383   26.4706 C   0  0  0  0  0  0
    6.6067    7.6834   25.2820 C   0  0  0  0  0  0
    7.8557    8.3038   25.0326 C   0  0  0  0  0  0
    8.9081    8.1855   25.9835 C   0  0  0  0  0  0
    1.8989    4.1552   24.1053 H   0  0  0  0  0  0
    5.9946    0.6678   22.8339 H   0  0  0  0  0  0
    9.2231   10.3572   22.7070 H   0  0  0  0  0  0
    7.2295    9.5292   21.9509 H   0  0  0  0  0  0
    6.3221    8.4671   22.9287 H   0  0  0  0  0  0
  1  2  2  0  0  0
  1  3  1  0  0  0
  1 11  1  0  0  0
  3 30  1  0  0  0
  4  5  2  0  0  0
  4  9  1  0  0  0
  5  6  1  0  0  0
  6  7  2  0  0  0
  7  8  1  0  0  0
  7 10  1  0  0  0
  8  9  2  0  0  0
 10 14  1  0  0  0
 10 31  1  0  0  0
 11 12  1  0  0  0
 11 21  1  0  0  0
 12 13  1  0  0  0
 13 14  1  0  0  0
 15 17  2  0  0  0
 15 32  1  0  0  0
 16 17  1  0  0  0
 16 33  1  0  0  0
 16 34  1  0  0  0
 17 28  1  0  0  0
 18 19  2  0  0  0
 18 23  1  0  0  0
 19 20  1  0  0  0
 20 21  2  0  0  0
 21 22  1  0  0  0
 22 23  2  0  0  0
 23 26  1  0  0  0
 24 25  2  0  0  0
 24 29  1  0  0  0
 25 26  1  0  0  0
 26 27  2  0  0  0
 27 28  1  0  0  0
 28 29  2  0  0  0
M  END
>  <CHROM.0>
129.44251284,177.91516157,-140.15127500,55.67870570,-178.26086318,19.35950270
12.24410262,121.66694814

>  <CHROM.1>
-179.55562581,115.44469143,12.54719572,-118.09128922,-69.34806200,36.78458640
130.77991476,60.26758357,169.87483524,91.51106936,4.92571805,4.84800823,24.47191804
2.49743184,-0.79919163,-2.05777505

>  <FORMUL>
      4PP    C23 H24 N4 O2

>  <HET>
 4PP  C 500      29

>  <HETNAM>
     4PP (2S)-(3'-AMIDINO-3-BIPHENYL)-5-(4-PYRIDYLAMINO)PENTANOI
   2 4PP C ACID

>  <Name>
4PP.pdb

>  <RI>
2.04559e+07

>  <Rbt.Current_Directory>
/home/malgorzata/Desktop/rDOCK_IFD/Wyniki/7_factor_Xa/IFD

>  <Rbt.Executable>
rbdock ($Id: //depot/dev/client3/rdock/2013.1/src/exe/rbdock.cxx#4 $)

>  <Rbt.Library>
libRbt.so (2013.1, Build901 2013/11/27)

>  <Rbt.Parameter_File>
/home/malgorzata/Desktop/rDock_2013.1_src/data/scripts/dock.prm

>  <Rbt.Receptor>
cavity.prm

>  <SCORE>
-28.8932

>  <SCORE.INTER>
-16.5204

>  <SCORE.INTER.CONST>
1

>  <SCORE.INTER.POLAR>
-0.411325

>  <SCORE.INTER.REPUL>
0

>  <SCORE.INTER.ROT>
9

>  <SCORE.INTER.VDW>
-29.5219

>  <SCORE.INTER.norm>
-0.569668

>  <SCORE.INTRA>
-2.0019

>  <SCORE.INTRA.DIHEDRAL>
-4.47017

>  <SCORE.INTRA.DIHEDRAL.0>
20.1331

>  <SCORE.INTRA.POLAR>
0

>  <SCORE.INTRA.POLAR.0>
0

>  <SCORE.INTRA.REPUL>
0

>  <SCORE.INTRA.REPUL.0>
0

>  <SCORE.INTRA.VDW>
0.233186

>  <SCORE.INTRA.VDW.0>
0.0644272

>  <SCORE.INTRA.norm>
-0.0690311

>  <SCORE.RESTR>
0

>  <SCORE.RESTR.CAVITY>
0

>  <SCORE.RESTR.norm>
0

>  <SCORE.SYSTEM>
-10.371

>  <SCORE.SYSTEM.CONST>
0

>  <SCORE.SYSTEM.DIHEDRAL>
3.52475

>  <SCORE.SYSTEM.POLAR>
-3.30557

>  <SCORE.SYSTEM.VDW>
-0.894394

>  <SCORE.SYSTEM.norm>
-0.357619

>  <SCORE.heavy>
29

>  <SCORE.norm>
-0.996318

$$$$
4PP.pdb
  rDOCK(R)          3D
libRbt.so/2013.1/901 2013/11/27
 34 36  0  0  0  0  0  0  0  0999 V2000
    1.5939   -1.3574   18.8831 C   0  0  0  0  0  0
    1.8334   -2.3969   18.2531 O   0  0  0  0  0  0
    0.4125   -0.6929   18.6931 O   0  0  0  0  0  0
    5.9200    3.4232   25.4108 N   0  0  0  0  0  0
    6.8469    3.2142   24.3708 C   0  0  0  0  0  0
    6.6280    2.1781   23.4393 C   0  0  0  0  0  0
    5.4890    1.3540   23.5480 C   0  0  0  0  0  0
    4.5544    1.5705   24.5994 C   0  0  0  0  0  0
    4.7752    2.6023   25.5229 C   0  0  0  0  0  0
    5.3020    0.2735   22.5437 N   0  0  0  0  0  0
    2.6391   -0.8328   19.8881 C   0  0  0  0  0  0
    2.0330   -0.6927   21.2868 C   0  0  0  0  0  0
    2.9108    0.2800   22.0684 C   0  0  0  0  0  0
    4.0461   -0.4822   22.7424 C   0  0  0  0  0  0
   11.2627    1.6240   20.2076 N   0  0  0  0  0  0
    9.3238    1.6466   21.4177 N   0  0  0  0  0  0
   10.0696    1.1217   20.4662 C   0  0  0  0  0  0
    6.0675   -3.5682   19.9498 C   0  0  0  0  0  0
    4.7637   -4.0383   20.2676 C   0  0  0  0  0  0
    3.6631   -3.1429   20.2426 C   0  0  0  0  0  0
    3.8561   -1.7721   19.9019 C   0  0  0  0  0  0
    5.1680   -1.2917   19.5824 C   0  0  0  0  0  0
    6.2783   -2.1900   19.6050 C   0  0  0  0  0  0
    9.7939   -1.8222   17.9381 C   0  0  0  0  0  0
    8.4879   -2.3119   18.2327 C   0  0  0  0  0  0
    7.7043   -1.6834   19.2527 C   0  0  0  0  0  0
    8.2382   -0.5760   19.9623 C   0  0  0  0  0  0
    9.5345   -0.0845   19.6712 C   0  0  0  0  0  0
   10.3176   -0.7069   18.6587 C   0  0  0  0  0  0
    0.2414    0.1014   19.1597 H   0  0  0  0  0  0
    5.9453    0.0816   21.8236 H   0  0  0  0  0  0
   11.5943    2.3950   20.7222 H   0  0  0  0  0  0
    9.6541    2.4176   21.9332 H   0  0  0  0  0  0
    8.4363    1.2677   21.6130 H   0  0  0  0  0  0
  1  2  2  0  0  0
  1  3  1  0  0  0
  1 11  1  0  0  0
  3 30  1  0  0  0
  4  5  2  0  0  0
  4  9  1  0  0  0
  5  6  1  0  0  0
  6  7  2  0  0  0
  7  8  1  0  0  0
  7 10  1  0  0  0
  8  9  2  0  0  0
 10 14  1  0  0  0
 10 31  1  0  0  0
 11 12  1  0  0  0
 11 21  1  0  0  0
 12 13  1  0  0  0
 13 14  1  0  0  0
 15 17  2  0  0  0
 15 32  1  0  0  0
 16 17  1  0  0  0
 16 33  1  0  0  0
 16 34  1  0  0  0
 17 28  1  0  0  0
 18 19  2  0  0  0
 18 23  1  0  0  0
 19 20  1  0  0  0
 20 21  2  0  0  0
 21 22  1  0  0  0
 22 23  2  0  0  0
 23 26  1  0  0  0
 24 25  2  0  0  0
 24 29  1  0  0  0
 25 26  1  0  0  0
 26 27  2  0  0  0
 27 28  1  0  0  0
 28 29  2  0  0  0
M  END
>  <CHROM.0>
-76.30877128,-52.63731723,7.58017877,177.39578791,65.07037838,19.75522743
-145.25517079,122.19169894

>  <CHROM.1>
-178.88780502,-122.95322184,-177.87872504,83.82786732,-159.35692944,-59.05252292
-87.63794601,135.65783668,-178.75299705,54.25593209,5.77994384,-0.32711404
20.91859916,-2.77321524,0.16622829,0.87204570

>  <FORMUL>
      4PP    C23 H24 N4 O2

>  <HET>
 4PP  C 500      29

>  <HETNAM>
     4PP (2S)-(3'-AMIDINO-3-BIPHENYL)-5-(4-PYRIDYLAMINO)PENTANOI
   2 4PP C ACID

>  <Name>
4PP.pdb

>  <RI>
2.04559e+07

>  <Rbt.Current_Directory>
/home/malgorzata/Desktop/rDOCK_IFD/Wyniki/7_factor_Xa/IFD

>  <Rbt.Executable>
rbdock ($Id: //depot/dev/client3/rdock/2013.1/src/exe/rbdock.cxx#4 $)

>  <Rbt.Library>
libRbt.so (2013.1, Build901 2013/11/27)

>  <Rbt.Parameter_File>
/home/malgorzata/Desktop/rDock_2013.1_src/data/scripts/dock.prm

>  <Rbt.Receptor>
cavity.prm

>  <SCORE>
-17.7245

>  <SCORE.INTER>
-7.18725

>  <SCORE.INTER.CONST>
1

>  <SCORE.INTER.POLAR>
-1.14757

>  <SCORE.INTER.REPUL>
0.0452921

>  <SCORE.INTER.ROT>
9

>  <SCORE.INTER.VDW>
-17.912

>  <SCORE.INTER.norm>
-0.247836

>  <SCORE.INTRA>
-3.79258

>  <SCORE.INTRA.DIHEDRAL>
-4.2918

>  <SCORE.INTRA.DIHEDRAL.0>
20.1331

>  <SCORE.INTRA.POLAR>
0

>  <SCORE.INTRA.POLAR.0>
0

>  <SCORE.INTRA.REPUL>
0

>  <SCORE.INTRA.REPUL.0>
0

>  <SCORE.INTRA.VDW>
-1.64668

>  <SCORE.INTRA.VDW.0>
0.0644272

>  <SCORE.INTRA.norm>
-0.130779

>  <SCORE.RESTR>
0

>  <SCORE.RESTR.CAVITY>
0

>  <SCORE.RESTR.norm>
0

>  <SCORE.SYSTEM>
-6.74466

>  <SCORE.SYSTEM.CONST>
0

>  <SCORE.SYSTEM.DIHEDRAL>
3.27389

>  <SCORE.SYSTEM.POLAR>
-2.90265

>  <SCORE.SYSTEM.REPUL>
0.105918

>  <SCORE.SYSTEM.VDW>
0.957805

>  <SCORE.SYSTEM.norm>
-0.232575

>  <SCORE.heavy>
29

>  <SCORE.norm>
-0.611189

$$$$
4PP.pdb
  rDOCK(R)          3D
libRbt.so/2013.1/901 2013/11/27
 34 36  0  0  0  0  0  0  0  0999 V2000
    5.0054    1.4132   19.5365 C   0  0  0  0  0  0
    4.2761    1.7394   18.5897 O   0  0  0  0  0  0
    4.9133    0.1593   20.0774 O   0  0  0  0  0  0
    2.9570    2.7643   26.8866 N   0  0  0  0  0  0
    3.6758    1.6520   26.4063 C   0  0  0  0  0  0
    4.7617    1.8496   25.5283 C   0  0  0  0  0  0
    5.1262    3.1526   25.1312 C   0  0  0  0  0  0
    4.3980    4.2732   25.6208 C   0  0  0  0  0  0
    3.3196    4.0726   26.4942 C   0  0  0  0  0  0
    6.2768    3.3108   24.2026 N   0  0  0  0  0  0
    6.0214    2.4346   20.0861 C   0  0  0  0  0  0
    5.7323    2.7608   21.5535 C   0  0  0  0  0  0
    6.4740    4.0512   21.8881 C   0  0  0  0  0  0
    6.1362    4.4825   23.3108 C   0  0  0  0  0  0
   12.7521   -4.5761   17.3953 N   0  0  0  0  0  0
   13.1509   -2.3523   17.0487 N   0  0  0  0  0  0
   12.3299   -3.3253   17.3901 C   0  0  0  0  0  0
   10.1169    0.9392   19.6059 C   0  0  0  0  0  0
    9.8808    2.2432   20.1217 C   0  0  0  0  0  0
    8.5508    2.7140   20.2731 C   0  0  0  0  0  0
    7.4473    1.8878   19.9094 C   0  0  0  0  0  0
    7.6787    0.5734   19.3872 C   0  0  0  0  0  0
    9.0160    0.0950   19.2346 C   0  0  0  0  0  0
    8.5014   -3.5864   18.0283 C   0  0  0  0  0  0
    8.2220   -2.2858   18.5406 C   0  0  0  0  0  0
    9.2800   -1.3311   18.6773 C   0  0  0  0  0  0
   10.6003   -1.6913   18.3003 C   0  0  0  0  0  0
   10.8820   -2.9819   17.7884 C   0  0  0  0  0  0
    9.8335   -3.9345   17.6518 C   0  0  0  0  0  0
    4.3217   -0.4674   19.7095 H   0  0  0  0  0  0
    7.0494    2.7010   24.1834 H   0  0  0  0  0  0
   13.6796   -4.7837   17.1388 H   0  0  0  0  0  0
   14.0787   -2.5584   16.7921 H   0  0  0  0  0  0
   12.8362   -1.4194   17.0503 H   0  0  0  0  0  0
  1  2  2  0  0  0
  1  3  1  0  0  0
  1 11  1  0  0  0
  3 30  1  0  0  0
  4  5  2  0  0  0
  4  9  1  0  0  0
  5  6  1  0  0  0
  6  7  2  0  0  0
  7  8  1  0  0  0
  7 10  1  0  0  0
  8  9  2  0  0  0
 10 14  1  0  0  0
 10 31  1  0  0  0
 11 12  1  0  0  0
 11 21  1  0  0  0
 12 13  1  0  0  0
 13 14  1  0  0  0
 15 17  2  0  0  0
 15 32  1  0  0  0
 16 17  1  0  0  0
 16 33  1  0  0  0
 16 34  1  0  0  0
 17 28  1  0  0  0
 18 19  2  0  0  0
 18 23  1  0  0  0
 19 20  1  0  0  0
 20 21  2  0  0  0
 21 22  1  0  0  0
 22 23  2  0  0  0
 23 26  1  0  0  0
 24 25  2  0  0  0
 24 29  1  0  0  0
 25 26  1  0  0  0
 26 27  2  0  0  0
 27 28  1  0  0  0
 28 29  2  0  0  0
M  END
>  <CHROM.0>
-122.17668793,-55.99663983,63.01701684,55.96393261,58.94658565,13.44513072
8.21808910,-33.87204483

>  <CHROM.1>
2.47698979,118.65239554,148.69796405,-133.44136025,-162.95458200,175.96144382
175.71962595,47.93159903,154.34753158,167.84277808,7.47198059,0.71474516
20.84071490,2.20377084,0.21232972,0.72134179

>  <FORMUL>
      4PP    C23 H24 N4 O2

>  <HET>
 4PP  C 500      29

>  <HETNAM>
     4PP (2S)-(3'-AMIDINO-3-BIPHENYL)-5-(4-PYRIDYLAMINO)PENTANOI
   2 4PP C ACID

>  <Name>
4PP.pdb

>  <RI>
2.04559e+07

>  <Rbt.Current_Directory>
/home/malgorzata/Desktop/rDOCK_IFD/Wyniki/7_factor_Xa/IFD

>  <Rbt.Executable>
rbdock ($Id: //depot/dev/client3/rdock/2013.1/src/exe/rbdock.cxx#4 $)

>  <Rbt.Library>
libRbt.so (2013.1, Build901 2013/11/27)

>  <Rbt.Parameter_File>
/home/malgorzata/Desktop/rDock_2013.1_src/data/scripts/dock.prm

>  <Rbt.Receptor>
cavity.prm

>  <SCORE>
-26.4535

>  <SCORE.INTER>
-16.8433

>  <SCORE.INTER.CONST>
1

>  <SCORE.INTER.POLAR>
-0.945623

>  <SCORE.INTER.REPUL>
0

>  <SCORE.INTER.ROT>
9

>  <SCORE.INTER.VDW>
-28.0282

>  <SCORE.INTER.norm>
-0.580805

>  <SCORE.INTRA>
-3.52275

>  <SCORE.INTRA.DIHEDRAL>
-8.55417

>  <SCORE.INTRA.DIHEDRAL.0>
20.1331

>  <SCORE.INTRA.POLAR>
0

>  <SCORE.INTRA.POLAR.0>
0

>  <SCORE.INTRA.REPUL>
0

>  <SCORE.INTRA.REPUL.0>
0

>  <SCORE.INTRA.VDW>
0.754334

>  <SCORE.INTRA.VDW.0>
0.0644272

>  <SCORE.INTRA.norm>
-0.121474

>  <SCORE.RESTR>
0

>  <SCORE.RESTR.CAVITY>
0

>  <SCORE.RESTR.norm>
0

>  <SCORE.SYSTEM>
-6.08744

>  <SCORE.SYSTEM.CONST>
0

>  <SCORE.SYSTEM.DIHEDRAL>
5.28408

>  <SCORE.SYSTEM.POLAR>
-3.11519

>  <SCORE.SYSTEM.REPUL>
0.0714973

>  <SCORE.SYSTEM.VDW>
1.50467

>  <SCORE.SYSTEM.norm>
-0.209912

>  <SCORE.heavy>
29

>  <SCORE.norm>
-0.912191

$$$$
4PP.pdb
  rDOCK(R)          3D
libRbt.so/2013.1/901 2013/11/27
 34 36  0  0  0  0  0  0  0  0999 V2000
    7.1132    2.4336   20.9419 C   0  0  0  0  0  0
    8.1212    2.9943   20.4899 O   0  0  0  0  0  0
    5.8969    3.0596   20.8954 O   0  0  0  0  0  0
    5.5042    7.2639   26.4293 N   0  0  0  0  0  0
    6.5782    6.9068   25.5905 C   0  0  0  0  0  0
    6.6118    5.6224   25.0090 C   0  0  0  0  0  0
    5.5776    4.6989   25.2661 C   0  0  0  0  0  0
    4.4937    5.0651   26.1127 C   0  0  0  0  0  0
    4.4636    6.3434   26.6882 C   0  0  0  0  0  0
    5.6576    3.3562   24.6322 N   0  0  0  0  0  0
    7.2487    1.0209   21.5450 C   0  0  0  0  0  0
    6.4842    0.9131   22.8668 C   0  0  0  0  0  0
    7.2795    1.6822   23.9172 C   0  0  0  0  0  0
    6.9057    3.1592   23.8632 C   0  0  0  0  0  0
   12.3820   -2.4228   18.7536 N   0  0  0  0  0  0
   12.7858   -4.3665   17.6206 N   0  0  0  0  0  0
   11.9358   -3.4933   18.1229 C   0  0  0  0  0  0
    5.7638   -1.9268   18.6560 C   0  0  0  0  0  0
    4.8818   -0.9688   19.2273 C   0  0  0  0  0  0
    5.3757   -0.0199   20.1598 C   0  0  0  0  0  0
    6.7525   -0.0215   20.5299 C   0  0  0  0  0  0
    7.6461   -0.9856   19.9591 C   0  0  0  0  0  0
    7.1533   -1.9415   19.0189 C   0  0  0  0  0  0
    8.5240   -5.0677   17.1159 C   0  0  0  0  0  0
    7.6136   -4.1272   17.6805 C   0  0  0  0  0  0
    8.1136   -2.9868   18.3868 C   0  0  0  0  0  0
    9.5152   -2.8046   18.5182 C   0  0  0  0  0  0
   10.4236   -3.7354   17.9567 C   0  0  0  0  0  0
    9.9309   -4.8711   17.2545 C   0  0  0  0  0  0
    5.1350    2.6285   21.2297 H   0  0  0  0  0  0
    4.9550    2.6717   24.7154 H   0  0  0  0  0  0
   13.3507   -2.2785   18.8537 H   0  0  0  0  0  0
   13.7548   -4.2235   17.7200 H   0  0  0  0  0  0
   12.4518   -5.1617   17.1460 H   0  0  0  0  0  0
  1  2  2  0  0  0
  1  3  1  0  0  0
  1 11  1  0  0  0
  3 30  1  0  0  0
  4  5  2  0  0  0
  4  9  1  0  0  0
  5  6  1  0  0  0
  6  7  2  0  0  0
  7  8  1  0  0  0
  7 10  1  0  0  0
  8  9  2  0  0  0
 10 14  1  0  0  0
 10 31  1  0  0  0
 11 12  1  0  0  0
 11 21  1  0  0  0
 12 13  1  0  0  0
 13 14  1  0  0  0
 15 17  2  0  0  0
 15 32  1  0  0  0
 16 17  1  0  0  0
 16 33  1  0  0  0
 16 34  1  0  0  0
 17 28  1  0  0  0
 18 19  2  0  0  0
 18 23  1  0  0  0
 19 20  1  0  0  0
 20 21  2  0  0  0
 21 22  1  0  0  0
 22 23  2  0  0  0
 23 26  1  0  0  0
 24 25  2  0  0  0
 24 29  1  0  0  0
 25 26  1  0  0  0
 26 27  2  0  0  0
 27 28  1  0  0  0
 28 29  2  0  0  0
M  END
>  <CHROM.0>
-119.57683214,-54.41789520,9.77496636,55.45075309,61.78973848,21.93341215
-158.44078734,123.56251871

>  <CHROM.1>
179.32397612,135.21879593,3.69331265,149.07380446,-73.45431566,-65.00279745
85.09934533,82.17824080,-1.39490160,-14.17112248,7.49779647,0.56304920,21.16863584
-1.91706115,0.04459195,-2.44199842

>  <FORMUL>
      4PP    C23 H24 N4 O2

>  <HET>
 4PP  C 500      29

>  <HETNAM>
     4PP (2S)-(3'-AMIDINO-3-BIPHENYL)-5-(4-PYRIDYLAMINO)PENTANOI
   2 4PP C ACID

>  <Name>
4PP.pdb

>  <RI>
2.04559e+07

>  <Rbt.Current_Directory>
/home/malgorzata/Desktop/rDOCK_IFD/Wyniki/7_factor_Xa/IFD

>  <Rbt.Executable>
rbdock ($Id: //depot/dev/client3/rdock/2013.1/src/exe/rbdock.cxx#4 $)

>  <Rbt.Library>
libRbt.so (2013.1, Build901 2013/11/27)

>  <Rbt.Parameter_File>
/home/malgorzata/Desktop/rDock_2013.1_src/data/scripts/dock.prm

>  <Rbt.Receptor>
cavity.prm

>  <SCORE>
-22.9967

>  <SCORE.INTER>
-10.7614

>  <SCORE.INTER.CONST>
1

>  <SCORE.INTER.POLAR>
0

>  <SCORE.INTER.REPUL>
0

>  <SCORE.INTER.ROT>
9

>  <SCORE.INTER.VDW>
-25.1614

>  <SCORE.INTER.norm>
-0.371081

>  <SCORE.INTRA>
-4.69197

>  <SCORE.INTRA.DIHEDRAL>
-11.0871

>  <SCORE.INTRA.DIHEDRAL.0>
20.1331

>  <SCORE.INTRA.POLAR>
0

>  <SCORE.INTRA.POLAR.0>
0

>  <SCORE.INTRA.REPUL>
0

>  <SCORE.INTRA.REPUL.0>
0

>  <SCORE.INTRA.VDW>
0.851571

>  <SCORE.INTRA.VDW.0>
0.0644272

>  <SCORE.INTRA.norm>
-0.161792

>  <SCORE.RESTR>
0

>  <SCORE.RESTR.CAVITY>
0

>  <SCORE.RESTR.norm>
0

>  <SCORE.SYSTEM>
-7.5434

>  <SCORE.SYSTEM.CONST>
0

>  <SCORE.SYSTEM.DIHEDRAL>
2.26427

>  <SCORE.SYSTEM.POLAR>
-3.11421

>  <SCORE.SYSTEM.REPUL>
0.0990797

>  <SCORE.SYSTEM.VDW>
1.41739

>  <SCORE.SYSTEM.norm>
-0.260117

>  <SCORE.heavy>
29

>  <SCORE.norm>
-0.79299

$$$$
4PP.pdb
  rDOCK(R)          3D
libRbt.so/2013.1/901 2013/11/27
 34 36  0  0  0  0  0  0  0  0999 V2000
    5.5270    2.8523   25.1900 C   0  0  0  0  0  0
    5.9852    3.9803   24.9611 O   0  0  0  0  0  0
    4.5203    2.6894   26.1028 O   0  0  0  0  0  0
    6.0865   -1.9684   18.5199 N   0  0  0  0  0  0
    6.0628   -3.3046   18.9652 C   0  0  0  0  0  0
    5.8547   -3.5804   20.3325 C   0  0  0  0  0  0
    5.6728   -2.5256   21.2505 C   0  0  0  0  0  0
    5.6957   -1.1772   20.7952 C   0  0  0  0  0  0
    5.9019   -0.9072   19.4348 C   0  0  0  0  0  0
    5.4587   -2.8656   22.6821 N   0  0  0  0  0  0
    6.0993    1.6419   24.4251 C   0  0  0  0  0  0
    5.0794    0.5024   24.3594 C   0  0  0  0  0  0
    5.7937   -0.7157   23.7820 C   0  0  0  0  0  0
    4.7713   -1.7903   23.4297 C   0  0  0  0  0  0
    9.0945   -2.7842   18.7649 N   0  0  0  0  0  0
   10.7223   -2.2238   17.2614 N   0  0  0  0  0  0
    9.9924   -1.9260   18.3177 C   0  0  0  0  0  0
    7.2776    2.9424   20.4051 C   0  0  0  0  0  0
    6.1564    3.5293   21.0536 C   0  0  0  0  0  0
    5.7869    3.1001   22.3547 C   0  0  0  0  0  0
    6.5325    2.0813   23.0170 C   0  0  0  0  0  0
    7.6623    1.4845   22.3680 C   0  0  0  0  0  0
    8.0385    1.9147   21.0589 C   0  0  0  0  0  0
   11.6473    1.3194   19.6821 C   0  0  0  0  0  0
   10.5433    1.9283   20.3474 C   0  0  0  0  0  0
    9.2663    1.2813   20.3479 C   0  0  0  0  0  0
    9.1125    0.0365   19.6831 C   0  0  0  0  0  0
   10.2075   -0.5733   19.0227 C   0  0  0  0  0  0
   11.4786    0.0668   19.0189 C   0  0  0  0  0  0
    4.1756    1.8348   26.2726 H   0  0  0  0  0  0
    5.7441   -3.7155   23.0888 H   0  0  0  0  0  0
    8.9657   -3.6457   18.3062 H   0  0  0  0  0  0
   10.5947   -3.0850   16.8017 H   0  0  0  0  0  0
   11.3952   -1.5850   16.9320 H   0  0  0  0  0  0
  1  2  2  0  0  0
  1  3  1  0  0  0
  1 11  1  0  0  0
  3 30  1  0  0  0
  4  5  2  0  0  0
  4  9  1  0  0  0
  5  6  1  0  0  0
  6  7  2  0  0  0
  7  8  1  0  0  0
  7 10  1  0  0  0
  8  9  2  0  0  0
 10 14  1  0  0  0
 10 31  1  0  0  0
 11 12  1  0  0  0
 11 21  1  0  0  0
 12 13  1  0  0  0
 13 14  1  0  0  0
 15 17  2  0  0  0
 15 32  1  0  0  0
 16 17  1  0  0  0
 16 33  1  0  0  0
 16 34  1  0  0  0
 17 28  1  0  0  0
 18 19  2  0  0  0
 18 23  1  0  0  0
 19 20  1  0  0  0
 20 21  2  0  0  0
 21 22  1  0  0  0
 22 23  2  0  0  0
 23 26  1  0  0  0
 24 25  2  0  0  0
 24 29  1  0  0  0
 25 26  1  0  0  0
 26 27  2  0  0  0
 27 28  1  0  0  0
 28 29  2  0  0  0
M  END
>  <CHROM.0>
124.50993307,-53.46730063,9.33897852,55.05701430,179.69312834,24.75534657
-150.89381367,122.90022185

>  <CHROM.1>
179.93596409,-155.45401571,-157.36026709,-79.57509002,-171.53161751,-33.78989733
-168.60361027,171.23847717,-30.16679112,81.24931882,7.26946671,0.15429270
21.32798591,-2.25742465,-0.65182678,-2.59641100

>  <FORMUL>
      4PP    C23 H24 N4 O2

>  <HET>
 4PP  C 500      29

>  <HETNAM>
     4PP (2S)-(3'-AMIDINO-3-BIPHENYL)-5-(4-PYRIDYLAMINO)PENTANOI
   2 4PP C ACID

>  <Name>
4PP.pdb

>  <RI>
2.04559e+07

>  <Rbt.Current_Directory>
/home/malgorzata/Desktop/rDOCK_IFD/Wyniki/7_factor_Xa/IFD

>  <Rbt.Executable>
rbdock ($Id: //depot/dev/client3/rdock/2013.1/src/exe/rbdock.cxx#4 $)

>  <Rbt.Library>
libRbt.so (2013.1, Build901 2013/11/27)

>  <Rbt.Parameter_File>
/home/malgorzata/Desktop/rDock_2013.1_src/data/scripts/dock.prm

>  <Rbt.Receptor>
cavity.prm

>  <SCORE>
-27.7903

>  <SCORE.INTER>
-15.4682

>  <SCORE.INTER.CONST>
1

>  <SCORE.INTER.POLAR>
-0.934434

>  <SCORE.INTER.REPUL>
0

>  <SCORE.INTER.ROT>
9

>  <SCORE.INTER.VDW>
-26.6911

>  <SCORE.INTER.norm>
-0.533386

>  <SCORE.INTRA>
-3.8166

>  <SCORE.INTRA.DIHEDRAL>
-4.30168

>  <SCORE.INTRA.DIHEDRAL.0>
20.1331

>  <SCORE.INTRA.POLAR>
0

>  <SCORE.INTRA.POLAR.0>
0

>  <SCORE.INTRA.REPUL>
0

>  <SCORE.INTRA.REPUL.0>
0

>  <SCORE.INTRA.VDW>
-1.66576

>  <SCORE.INTRA.VDW.0>
0.0644272

>  <SCORE.INTRA.norm>
-0.131607

>  <SCORE.RESTR>
0

>  <SCORE.RESTR.CAVITY>
0

>  <SCORE.RESTR.norm>
0

>  <SCORE.SYSTEM>
-8.50555

>  <SCORE.SYSTEM.CONST>
0

>  <SCORE.SYSTEM.DIHEDRAL>
2.7988

>  <SCORE.SYSTEM.POLAR>
-3.2727

>  <SCORE.SYSTEM.REPUL>
0.013582

>  <SCORE.SYSTEM.VDW>
1.15431

>  <SCORE.SYSTEM.norm>
-0.293295

>  <SCORE.heavy>
29

>  <SCORE.norm>
-0.958287

$$$$
4PP.pdb
  rDOCK(R)          3D
libRbt.so/2013.1/901 2013/11/27
 34 36  0  0  0  0  0  0  0  0999 V2000
    5.1152    0.9395   23.9529 C   0  0  0  0  0  0
    5.1744    0.9751   25.1898 O   0  0  0  0  0  0
    5.2916   -0.2439   23.2881 O   0  0  0  0  0  0
    1.2897    6.4322   29.0193 N   0  0  0  0  0  0
    2.4605    5.6661   28.8552 C   0  0  0  0  0  0
    3.1307    5.6740   27.6144 C   0  0  0  0  0  0
    2.6322    6.4426   26.5424 C   0  0  0  0  0  0
    1.4500    7.2165   26.7139 C   0  0  0  0  0  0
    0.7870    7.2067   27.9494 C   0  0  0  0  0  0
    3.3720    6.4177   25.2528 N   0  0  0  0  0  0
    4.8302    2.2422   23.1787 C   0  0  0  0  0  0
    5.3071    3.4644   23.9673 C   0  0  0  0  0  0
    4.0671    4.2456   24.3910 C   0  0  0  0  0  0
    4.4799    5.4377   25.2469 C   0  0  0  0  0  0
   10.1545   -1.9662   17.8113 N   0  0  0  0  0  0
   12.2949   -1.8268   18.6012 N   0  0  0  0  0  0
   11.0688   -1.3475   18.5352 C   0  0  0  0  0  0
    6.6784    2.0701   19.2045 C   0  0  0  0  0  0
    5.3005    2.3920   19.3461 C   0  0  0  0  0  0
    4.7156    2.4454   20.6378 C   0  0  0  0  0  0
    5.5009    2.1765   21.7969 C   0  0  0  0  0  0
    6.8896    1.8497   21.6607 C   0  0  0  0  0  0
    7.4827    1.7963   20.3623 C   0  0  0  0  0  0
   11.3815    1.9425   20.5874 C   0  0  0  0  0  0
   10.0090    2.2885   20.7568 C   0  0  0  0  0  0
    8.9891    1.4512   20.2018 C   0  0  0  0  0  0
    9.3567    0.2818   19.4860 C   0  0  0  0  0  0
   10.7193   -0.0672   19.3173 C   0  0  0  0  0  0
   11.7367    0.7629   19.8664 C   0  0  0  0  0  0
    5.2386   -0.2684   22.3529 H   0  0  0  0  0  0
    3.1484    6.9920   24.4851 H   0  0  0  0  0  0
   10.3894   -2.7837   17.3156 H   0  0  0  0  0  0
   12.5312   -2.6443   18.1061 H   0  0  0  0  0  0
   12.9744   -1.3673   19.1456 H   0  0  0  0  0  0
  1  2  2  0  0  0
  1  3  1  0  0  0
  1 11  1  0  0  0
  3 30  1  0  0  0
  4  5  2  0  0  0
  4  9  1  0  0  0
  5  6  1  0  0  0
  6  7  2  0  0  0
  7  8  1  0  0  0
  7 10  1  0  0  0
  8  9  2  0  0  0
 10 14  1  0  0  0
 10 31  1  0  0  0
 11 12  1  0  0  0
 11 21  1  0  0  0
 12 13  1  0  0  0
 13 14  1  0  0  0
 15 17  2  0  0  0
 15 32  1  0  0  0
 16 17  1  0  0  0
 16 33  1  0  0  0
 16 34  1  0  0  0
 17 28  1  0  0  0
 18 19  2  0  0  0
 18 23  1  0  0  0
 19 20  1  0  0  0
 20 21  2  0  0  0
 21 22  1  0  0  0
 22 23  2  0  0  0
 23 26  1  0  0  0
 24 25  2  0  0  0
 24 29  1  0  0  0
 25 26  1  0  0  0
 26 27  2  0  0  0
 27 28  1  0  0  0
 28 29  2  0  0  0
M  END
>  <CHROM.0>
133.91063580,-53.19232756,7.67192078,57.69395142,63.24410270,21.06182438
-151.06377150,118.10377521

>  <CHROM.1>
179.45916420,27.12467062,6.44927496,106.09200043,-112.17906056,127.97857393
176.97281560,160.61397407,13.32428887,117.29977348,6.25468036,2.59227622
22.76211626,2.27401932,0.28029687,0.67971696

>  <FORMUL>
      4PP    C23 H24 N4 O2

>  <HET>
 4PP  C 500      29

>  <HETNAM>
     4PP (2S)-(3'-AMIDINO-3-BIPHENYL)-5-(4-PYRIDYLAMINO)PENTANOI
   2 4PP C ACID

>  <Name>
4PP.pdb

>  <RI>
2.04559e+07

>  <Rbt.Current_Directory>
/home/malgorzata/Desktop/rDOCK_IFD/Wyniki/7_factor_Xa/IFD

>  <Rbt.Executable>
rbdock ($Id: //depot/dev/client3/rdock/2013.1/src/exe/rbdock.cxx#4 $)

>  <Rbt.Library>
libRbt.so (2013.1, Build901 2013/11/27)

>  <Rbt.Parameter_File>
/home/malgorzata/Desktop/rDock_2013.1_src/data/scripts/dock.prm

>  <Rbt.Receptor>
cavity.prm

>  <SCORE>
-21.3934

>  <SCORE.INTER>
-11.5021

>  <SCORE.INTER.CONST>
1

>  <SCORE.INTER.POLAR>
0

>  <SCORE.INTER.REPUL>
0

>  <SCORE.INTER.ROT>
9

>  <SCORE.INTER.VDW>
-25.9021

>  <SCORE.INTER.norm>
-0.396623

>  <SCORE.INTRA>
-2.35617

>  <SCORE.INTRA.DIHEDRAL>
-4.6486

>  <SCORE.INTRA.DIHEDRAL.0>
20.1331

>  <SCORE.INTRA.POLAR>
0

>  <SCORE.INTRA.POLAR.0>
0

>  <SCORE.INTRA.REPUL>
0

>  <SCORE.INTRA.REPUL.0>
0

>  <SCORE.INTRA.VDW>
-0.0318715

>  <SCORE.INTRA.VDW.0>
0.0644272

>  <SCORE.INTRA.norm>
-0.0812473

>  <SCORE.RESTR>
0

>  <SCORE.RESTR.CAVITY>
0

>  <SCORE.RESTR.norm>
0

>  <SCORE.SYSTEM>
-7.53516

>  <SCORE.SYSTEM.CONST>
0

>  <SCORE.SYSTEM.DIHEDRAL>
2.72122

>  <SCORE.SYSTEM.POLAR>
-3.06872

>  <SCORE.SYSTEM.REPUL>
0.0837644

>  <SCORE.SYSTEM.VDW>
1.11905

>  <SCORE.SYSTEM.norm>
-0.259833

>  <SCORE.heavy>
29

>  <SCORE.norm>
-0.737704

$$$$
4PP.pdb
  rDOCK(R)          3D
libRbt.so/2013.1/901 2013/11/27
 34 36  0  0  0  0  0  0  0  0999 V2000
    7.4049    2.4753   20.0619 C   0  0  0  0  0  0
    7.2484    3.7017   19.9824 O   0  0  0  0  0  0
    6.7202    1.6373   19.2240 O   0  0  0  0  0  0
    4.6501   -3.4605   22.0587 N   0  0  0  0  0  0
    3.7285   -2.5264   21.5463 C   0  0  0  0  0  0
    3.8195   -1.1731   21.9324 C   0  0  0  0  0  0
    4.8259   -0.7558   22.8277 C   0  0  0  0  0  0
    5.7559   -1.7031   23.3411 C   0  0  0  0  0  0
    5.6626   -3.0476   22.9540 C   0  0  0  0  0  0
    4.8808    0.6809   23.2070 N   0  0  0  0  0  0
    8.3874    1.9118   21.1082 C   0  0  0  0  0  0
    7.6695    0.9828   22.0904 C   0  0  0  0  0  0
    7.0135    1.8609   23.1515 C   0  0  0  0  0  0
    6.0776    1.0163   24.0088 C   0  0  0  0  0  0
   11.8758   -5.5950   15.3885 N   0  0  0  0  0  0
   13.1243   -4.5604   16.9995 N   0  0  0  0  0  0
   12.0188   -4.6375   16.2861 C   0  0  0  0  0  0
   11.7168   -0.1253   19.1068 C   0  0  0  0  0  0
   11.9669    0.8861   20.0746 C   0  0  0  0  0  0
   10.8805    1.5363   20.7155 C   0  0  0  0  0  0
    9.5372    1.1829   20.3940 C   0  0  0  0  0  0
    9.2786    0.1658   19.4181 C   0  0  0  0  0  0
   10.3693   -0.4922   18.7717 C   0  0  0  0  0  0
    8.6560   -2.6976   16.0379 C   0  0  0  0  0  0
    8.8678   -1.6630   16.9955 C   0  0  0  0  0  0
   10.1023   -1.6023   17.7179 C   0  0  0  0  0  0
   11.1051   -2.5765   17.4724 C   0  0  0  0  0  0
   10.8998   -3.6049   16.5199 C   0  0  0  0  0  0
    9.6737   -3.6697   15.8001 C   0  0  0  0  0  0
    6.1123    1.9889   18.6037 H   0  0  0  0  0  0
    4.1939    1.3384   22.9518 H   0  0  0  0  0  0
   12.5977   -6.2495   15.2477 H   0  0  0  0  0  0
   13.8470   -5.2142   16.8598 H   0  0  0  0  0  0
   13.2275   -3.8489   17.6721 H   0  0  0  0  0  0
  1  2  2  0  0  0
  1  3  1  0  0  0
  1 11  1  0  0  0
  3 30  1  0  0  0
  4  5  2  0  0  0
  4  9  1  0  0  0
  5  6  1  0  0  0
  6  7  2  0  0  0
  7  8  1  0  0  0
  7 10  1  0  0  0
  8  9  2  0  0  0
 10 14  1  0  0  0
 10 31  1  0  0  0
 11 12  1  0  0  0
 11 21  1  0  0  0
 12 13  1  0  0  0
 13 14  1  0  0  0
 15 17  2  0  0  0
 15 32  1  0  0  0
 16 17  1  0  0  0
 16 33  1  0  0  0
 16 34  1  0  0  0
 17 28  1  0  0  0
 18 19  2  0  0  0
 18 23  1  0  0  0
 19 20  1  0  0  0
 20 21  2  0  0  0
 21 22  1  0  0  0
 22 23  2  0  0  0
 23 26  1  0  0  0
 24 25  2  0  0  0
 24 29  1  0  0  0
 25 26  1  0  0  0
 26 27  2  0  0  0
 27 28  1  0  0  0
 28 29  2  0  0  0
M  END
>  <CHROM.0>
-80.86420332,177.69598173,-135.99389991,56.65635640,-178.23322880,27.11425225
8.01066359,-31.67305154

>  <CHROM.1>
-1.73366221,120.04945465,-172.68559106,109.47591148,-82.29855081,127.40281269
169.78272055,-72.64252698,-178.66815768,-156.32236075,8.38396610,-0.86012898
19.84761908,-2.45233056,-0.60083738,-2.74603771

>  <FORMUL>
      4PP    C23 H24 N4 O2

>  <HET>
 4PP  C 500      29

>  <HETNAM>
     4PP (2S)-(3'-AMIDINO-3-BIPHENYL)-5-(4-PYRIDYLAMINO)PENTANOI
   2 4PP C ACID

>  <Name>
4PP.pdb

>  <RI>
2.04559e+07

>  <Rbt.Current_Directory>
/home/malgorzata/Desktop/rDOCK_IFD/Wyniki/7_factor_Xa/IFD

>  <Rbt.Executable>
rbdock ($Id: //depot/dev/client3/rdock/2013.1/src/exe/rbdock.cxx#4 $)

>  <Rbt.Library>
libRbt.so (2013.1, Build901 2013/11/27)

>  <Rbt.Parameter_File>
/home/malgorzata/Desktop/rDock_2013.1_src/data/scripts/dock.prm

>  <Rbt.Receptor>
cavity.prm

>  <SCORE>
-30.1725

>  <SCORE.INTER>
-13.2299

>  <SCORE.INTER.CONST>
1

>  <SCORE.INTER.POLAR>
0

>  <SCORE.INTER.REPUL>
0

>  <SCORE.INTER.ROT>
9

>  <SCORE.INTER.VDW>
-27.6299

>  <SCORE.INTER.norm>
-0.456203

>  <SCORE.INTRA>
-7.42993

>  <SCORE.INTRA.DIHEDRAL>
-12.6437

>  <SCORE.INTRA.DIHEDRAL.0>
20.1331

>  <SCORE.INTRA.POLAR>
0

>  <SCORE.INTRA.POLAR.0>
0

>  <SCORE.INTRA.REPUL>
0

>  <SCORE.INTRA.REPUL.0>
0

>  <SCORE.INTRA.VDW>
-1.10805

>  <SCORE.INTRA.VDW.0>
0.0644272

>  <SCORE.INTRA.norm>
-0.256204

>  <SCORE.RESTR>
0

>  <SCORE.RESTR.CAVITY>
0

>  <SCORE.RESTR.norm>
0

>  <SCORE.SYSTEM>
-9.51264

>  <SCORE.SYSTEM.CONST>
0

>  <SCORE.SYSTEM.DIHEDRAL>
3.7175

>  <SCORE.SYSTEM.POLAR>
-3.29103

>  <SCORE.SYSTEM.VDW>
-0.181898

>  <SCORE.SYSTEM.norm>
-0.328022

>  <SCORE.heavy>
29

>  <SCORE.norm>
-1.04043

$$$$
4PP.pdb
  rDOCK(R)          3D
libRbt.so/2013.1/901 2013/11/27
 34 36  0  0  0  0  0  0  0  0999 V2000
    3.1302    5.1937   20.9987 C   0  0  0  0  0  0
    3.5849    6.2298   20.4943 O   0  0  0  0  0  0
    1.8071    5.1166   21.3406 O   0  0  0  0  0  0
    5.2493    0.7594   14.1941 N   0  0  0  0  0  0
    5.8047    0.7940   15.4883 C   0  0  0  0  0  0
    4.9976    1.1642   16.5839 C   0  0  0  0  0  0
    3.6423    1.4997   16.3866 C   0  0  0  0  0  0
    3.0853    1.4614   15.0774 C   0  0  0  0  0  0
    3.8909    1.0919   13.9908 C   0  0  0  0  0  0
    2.8316    1.8855   17.5719 N   0  0  0  0  0  0
    4.0723    3.9940   21.2239 C   0  0  0  0  0  0
    5.0001    3.7922   20.0232 C   0  0  0  0  0  0
    4.1185    3.5516   18.8016 C   0  0  0  0  0  0
    3.6535    2.0999   18.7829 C   0  0  0  0  0  0
    8.4401   11.3354   22.4801 N   0  0  0  0  0  0
    6.6248   10.2493   21.6143 N   0  0  0  0  0  0
    7.6235   10.2981   22.4730 C   0  0  0  0  0  0
    6.3402    4.5365   24.9391 C   0  0  0  0  0  0
    5.5771    3.3558   24.7255 C   0  0  0  0  0  0
    4.8490    3.1926   23.5185 C   0  0  0  0  0  0
    4.8761    4.2069   22.5170 C   0  0  0  0  0  0
    5.6418    5.4000   22.7270 C   0  0  0  0  0  0
    6.3773    5.5676   23.9400 C   0  0  0  0  0  0
    8.8857    8.1500   25.4606 C   0  0  0  0  0  0
    8.1329    6.9541   25.2726 C   0  0  0  0  0  0
    7.2179    6.8528   24.1763 C   0  0  0  0  0  0
    7.0692    7.9482   23.2857 C   0  0  0  0  0  0
    7.8170    9.1376   23.4674 C   0  0  0  0  0  0
    8.7271    9.2431   24.5565 C   0  0  0  0  0  0
    1.2467    5.8568   21.2142 H   0  0  0  0  0  0
    1.8526    1.9874   17.5527 H   0  0  0  0  0  0
    8.3067   12.0713   21.8400 H   0  0  0  0  0  0
    6.4902   10.9846   20.9735 H   0  0  0  0  0  0
    6.0135    9.4776   21.6135 H   0  0  0  0  0  0
  1  2  2  0  0  0
  1  3  1  0  0  0
  1 11  1  0  0  0
  3 30  1  0  0  0
  4  5  2  0  0  0
  4  9  1  0  0  0
  5  6  1  0  0  0
  6  7  2  0  0  0
  7  8  1  0  0  0
  7 10  1  0  0  0
  8  9  2  0  0  0
 10 14  1  0  0  0
 10 31  1  0  0  0
 11 12  1  0  0  0
 11 21  1  0  0  0
 12 13  1  0  0  0
 13 14  1  0  0  0
 15 17  2  0  0  0
 15 32  1  0  0  0
 16 17  1  0  0  0
 16 33  1  0  0  0
 16 34  1  0  0  0
 17 28  1  0  0  0
 18 19  2  0  0  0
 18 23  1  0  0  0
 19 20  1  0  0  0
 20 21  2  0  0  0
 21 22  1  0  0  0
 22 23  2  0  0  0
 23 26  1  0  0  0
 24 25  2  0  0  0
 24 29  1  0  0  0
 25 26  1  0  0  0
 26 27  2  0  0  0
 27 28  1  0  0  0
 28 29  2  0  0  0
M  END
>  <CHROM.0>
160.22622933,176.33644249,-6.04134489,54.98554382,-179.07157007,21.28301570
11.65722268,124.62739738

>  <CHROM.1>
-1.60783745,-42.07736814,10.62809473,87.87400924,-59.33534980,125.82086760
-80.38480279,-178.53007268,-169.49608177,10.11311966,5.42074389,5.02852707
20.84450366,2.37882078,-1.10375630,-1.54824013

>  <FORMUL>
      4PP    C23 H24 N4 O2

>  <HET>
 4PP  C 500      29

>  <HETNAM>
     4PP (2S)-(3'-AMIDINO-3-BIPHENYL)-5-(4-PYRIDYLAMINO)PENTANOI
   2 4PP C ACID

>  <Name>
4PP.pdb

>  <RI>
2.04559e+07

>  <Rbt.Current_Directory>
/home/malgorzata/Desktop/rDOCK_IFD/Wyniki/7_factor_Xa/IFD

>  <Rbt.Executable>
rbdock ($Id: //depot/dev/client3/rdock/2013.1/src/exe/rbdock.cxx#4 $)

>  <Rbt.Library>
libRbt.so (2013.1, Build901 2013/11/27)

>  <Rbt.Parameter_File>
/home/malgorzata/Desktop/rDock_2013.1_src/data/scripts/dock.prm

>  <Rbt.Receptor>
cavity.prm

>  <SCORE>
-30.1884

>  <SCORE.INTER>
-14.7225

>  <SCORE.INTER.CONST>
1

>  <SCORE.INTER.POLAR>
-0.824621

>  <SCORE.INTER.REPUL>
0

>  <SCORE.INTER.ROT>
9

>  <SCORE.INTER.VDW>
-26.3188

>  <SCORE.INTER.norm>
-0.507674

>  <SCORE.INTRA>
-4.89588

>  <SCORE.INTRA.DIHEDRAL>
-12.2584

>  <SCORE.INTRA.DIHEDRAL.0>
20.1331

>  <SCORE.INTRA.POLAR>
0

>  <SCORE.INTRA.POLAR.0>
0

>  <SCORE.INTRA.REPUL>
0

>  <SCORE.INTRA.REPUL.0>
0

>  <SCORE.INTRA.VDW>
1.2333

>  <SCORE.INTRA.VDW.0>
0.0644272

>  <SCORE.INTRA.norm>
-0.168823

>  <SCORE.RESTR>
0

>  <SCORE.RESTR.CAVITY>
0

>  <SCORE.RESTR.norm>
0

>  <SCORE.SYSTEM>
-10.57

>  <SCORE.SYSTEM.CONST>
0

>  <SCORE.SYSTEM.DIHEDRAL>
1.64845

>  <SCORE.SYSTEM.POLAR>
-3.3154

>  <SCORE.SYSTEM.VDW>
-0.121878

>  <SCORE.SYSTEM.norm>
-0.364484

>  <SCORE.heavy>
29

>  <SCORE.norm>
-1.04098

$$$$
4PP.pdb
  rDOCK(R)          3D
libRbt.so/2013.1/901 2013/11/27
 34 36  0  0  0  0  0  0  0  0999 V2000
    6.1634    7.0602   26.4921 C   0  0  0  0  0  0
    6.3688    6.6384   27.6387 O   0  0  0  0  0  0
    5.1152    7.9053   26.2460 O   0  0  0  0  0  0
    8.4574    1.0720   20.7332 N   0  0  0  0  0  0
    8.1783    2.1902   19.9232 C   0  0  0  0  0  0
    7.3038    3.1915   20.3939 C   0  0  0  0  0  0
    6.7099    3.0747   21.6675 C   0  0  0  0  0  0
    6.9966    1.9439   22.4829 C   0  0  0  0  0  0
    7.8673    0.9510   22.0116 C   0  0  0  0  0  0
    5.7932    4.1545   22.1198 N   0  0  0  0  0  0
    7.1100    6.6282   25.3541 C   0  0  0  0  0  0
    6.3261    6.0122   24.1926 C   0  0  0  0  0  0
    6.1400    4.5303   24.5036 C   0  0  0  0  0  0
    5.2244    3.8987   23.4610 C   0  0  0  0  0  0
    4.2037   11.7272   19.0003 N   0  0  0  0  0  0
    3.9559   10.0043   20.4818 N   0  0  0  0  0  0
    4.6772   10.9911   19.9886 C   0  0  0  0  0  0
    9.5200   10.0622   24.0737 C   0  0  0  0  0  0
    9.9578    9.2316   25.1416 C   0  0  0  0  0  0
    9.1690    8.1231   25.5449 C   0  0  0  0  0  0
    7.9373    7.8367   24.8866 C   0  0  0  0  0  0
    7.4896    8.6711   23.8109 C   0  0  0  0  0  0
    8.2814    9.7871   23.4008 C   0  0  0  0  0  0
    8.1712   12.5661   20.6553 C   0  0  0  0  0  0
    8.6364   11.7511   21.7284 C   0  0  0  0  0  0
    7.8111   10.6946   22.2306 C   0  0  0  0  0  0
    6.5341   10.4696   21.6529 C   0  0  0  0  0  0
    6.0689   11.2755   20.5848 C   0  0  0  0  0  0
    6.8855   12.3277   20.0830 C   0  0  0  0  0  0
    4.5559    8.1747   26.9477 H   0  0  0  0  0  0
    5.5869    4.9542   21.5838 H   0  0  0  0  0  0
    3.3130   11.5361   18.6272 H   0  0  0  0  0  0
    3.0649    9.8122   20.1097 H   0  0  0  0  0  0
    4.3080    9.4594   21.2223 H   0  0  0  0  0  0
  1  2  2  0  0  0
  1  3  1  0  0  0
  1 11  1  0  0  0
  3 30  1  0  0  0
  4  5  2  0  0  0
  4  9  1  0  0  0
  5  6  1  0  0  0
  6  7  2  0  0  0
  7  8  1  0  0  0
  7 10  1  0  0  0
  8  9  2  0  0  0
 10 14  1  0  0  0
 10 31  1  0  0  0
 11 12  1  0  0  0
 11 21  1  0  0  0
 12 13  1  0  0  0
 13 14  1  0  0  0
 15 17  2  0  0  0
 15 32  1  0  0  0
 16 17  1  0  0  0
 16 33  1  0  0  0
 16 34  1  0  0  0
 17 28  1  0  0  0
 18 19  2  0  0  0
 18 23  1  0  0  0
 19 20  1  0  0  0
 20 21  2  0  0  0
 21 22  1  0  0  0
 22 23  2  0  0  0
 23 26  1  0  0  0
 24 25  2  0  0  0
 24 29  1  0  0  0
 25 26  1  0  0  0
 26 27  2  0  0  0
 27 28  1  0  0  0
 28 29  2  0  0  0
M  END
>  <CHROM.0>
132.99415997,-54.65884733,13.13326549,55.04024868,178.50868270,19.10980143
4.71875108,-27.54242190

>  <CHROM.1>
0.71055950,125.69305904,179.12510201,91.02319586,-86.12543290,88.05237068
173.37201791,55.44776201,179.41460018,4.91269835,6.92641828,7.37173010,22.81340242
-1.34335897,-1.37580700,0.09857329

>  <FORMUL>
      4PP    C23 H24 N4 O2

>  <HET>
 4PP  C 500      29

>  <HETNAM>
     4PP (2S)-(3'-AMIDINO-3-BIPHENYL)-5-(4-PYRIDYLAMINO)PENTANOI
   2 4PP C ACID

>  <Name>
4PP.pdb

>  <RI>
2.04559e+07

>  <Rbt.Current_Directory>
/home/malgorzata/Desktop/rDOCK_IFD/Wyniki/7_factor_Xa/IFD

>  <Rbt.Executable>
rbdock ($Id: //depot/dev/client3/rdock/2013.1/src/exe/rbdock.cxx#4 $)

>  <Rbt.Library>
libRbt.so (2013.1, Build901 2013/11/27)

>  <Rbt.Parameter_File>
/home/malgorzata/Desktop/rDock_2013.1_src/data/scripts/dock.prm

>  <Rbt.Receptor>
cavity.prm

>  <SCORE>
-38.6193

>  <SCORE.INTER>
-23.9615

>  <SCORE.INTER.CONST>
1

>  <SCORE.INTER.POLAR>
-0.43913

>  <SCORE.INTER.REPUL>
0

>  <SCORE.INTER.ROT>
9

>  <SCORE.INTER.VDW>
-36.8684

>  <SCORE.INTER.norm>
-0.826258

>  <SCORE.INTRA>
-6.59875

>  <SCORE.INTRA.DIHEDRAL>
-13.8394

>  <SCORE.INTRA.DIHEDRAL.0>
20.1331

>  <SCORE.INTRA.POLAR>
0

>  <SCORE.INTRA.POLAR.0>
0

>  <SCORE.INTRA.REPUL>
0

>  <SCORE.INTRA.REPUL.0>
0

>  <SCORE.INTRA.VDW>
0.320971

>  <SCORE.INTRA.VDW.0>
0.0644272

>  <SCORE.INTRA.norm>
-0.227543

>  <SCORE.RESTR>
0

>  <SCORE.RESTR.CAVITY>
0

>  <SCORE.RESTR.norm>
0

>  <SCORE.SYSTEM>
-8.05905

>  <SCORE.SYSTEM.CONST>
0

>  <SCORE.SYSTEM.DIHEDRAL>
1.76041

>  <SCORE.SYSTEM.POLAR>
-3.2927

>  <SCORE.SYSTEM.VDW>
2.25593

>  <SCORE.SYSTEM.norm>
-0.277898

>  <SCORE.heavy>
29

>  <SCORE.norm>
-1.3317

$$$$
