4PP.pdb
  rDOCK(R)          3D
libRbt.so/2013.1/901 2013/11/27
 34 36  0  0  0  0  0  0  0  0999 V2000
    3.4335    9.2209   25.6209 C   0  0  0  0  0  0
    2.8958    8.1106   25.7352 O   0  0  0  0  0  0
    3.1617   10.2144   26.5222 O   0  0  0  0  0  0
   10.8013   10.5629   24.3677 N   0  0  0  0  0  0
   10.0719   10.2730   23.1980 C   0  0  0  0  0  0
    9.1499    9.2058   23.1976 C   0  0  0  0  0  0
    8.9592    8.4313   24.3604 C   0  0  0  0  0  0
    9.6971    8.7294   25.5403 C   0  0  0  0  0  0
   10.6122    9.7919   25.5369 C   0  0  0  0  0  0
    7.9777    7.3153   24.3112 N   0  0  0  0  0  0
    4.4176    9.4605   24.4583 C   0  0  0  0  0  0
    5.8460    9.0876   24.8631 C   0  0  0  0  0  0
    5.8131    7.6530   25.3809 C   0  0  0  0  0  0
    7.2373    7.1472   25.5806 C   0  0  0  0  0  0
    6.7527    1.0431   22.0928 N   0  0  0  0  0  0
    7.5795    3.1305   22.5215 N   0  0  0  0  0  0
    6.5631    2.3418   22.2350 C   0  0  0  0  0  0
    3.0988    7.2427   20.9113 C   0  0  0  0  0  0
    3.0010    8.6606   20.9532 C   0  0  0  0  0  0
    3.4325    9.3659   22.1065 C   0  0  0  0  0  0
    3.9630    8.6610   23.2264 C   0  0  0  0  0  0
    4.0624    7.2317   23.1911 C   0  0  0  0  0  0
    3.6306    6.5182   22.0315 C   0  0  0  0  0  0
    2.7227    2.7275   21.7491 C   0  0  0  0  0  0
    2.5847    4.1458   21.7905 C   0  0  0  0  0  0
    3.7407    4.9693   21.9776 C   0  0  0  0  0  0
    5.0160    4.3626   22.1208 C   0  0  0  0  0  0
    5.1581    2.9537   22.0778 C   0  0  0  0  0  0
    4.0115    2.1311   21.8931 C   0  0  0  0  0  0
    2.5595   10.0594   27.2230 H   0  0  0  0  0  0
    7.8359    6.7489   23.5185 H   0  0  0  0  0  0
    7.6551    0.6632   22.1955 H   0  0  0  0  0  0
    8.4825    2.7520   22.6246 H   0  0  0  0  0  0
    7.4358    4.0981   22.6324 H   0  0  0  0  0  0
  1  2  2  0  0  0
  1  3  1  0  0  0
  1 11  1  0  0  0
  3 30  1  0  0  0
  4  5  2  0  0  0
  4  9  1  0  0  0
  5  6  1  0  0  0
  6  7  2  0  0  0
  7  8  1  0  0  0
  7 10  1  0  0  0
  8  9  2  0  0  0
 10 14  1  0  0  0
 10 31  1  0  0  0
 11 12  1  0  0  0
 11 21  1  0  0  0
 12 13  1  0  0  0
 13 14  1  0  0  0
 15 17  2  0  0  0
 15 32  1  0  0  0
 16 17  1  0  0  0
 16 33  1  0  0  0
 16 34  1  0  0  0
 17 28  1  0  0  0
 18 19  2  0  0  0
 18 23  1  0  0  0
 19 20  1  0  0  0
 20 21  2  0  0  0
 21 22  1  0  0  0
 22 23  2  0  0  0
 23 26  1  0  0  0
 24 25  2  0  0  0
 24 29  1  0  0  0
 25 26  1  0  0  0
 26 27  2  0  0  0
 27 28  1  0  0  0
 28 29  2  0  0  0
M  END
>  <CHROM.0>
111.89387992,-50.96384611,-172.43601986,-171.10187972,178.63770819,-179.86931261
80.87116987,-44.69134045,-177.61499322,-152.23084747,-178.15798302,136.41613382

>  <CHROM.1>
-0.71323873,-89.16767420,-143.69825696,106.54960206,54.06793819,109.10707933
170.62457475,-54.72591011,-174.47625960,-59.72892822,5.71870719,6.93572594
23.49655871,1.04611803,-0.10906922,0.37701056

>  <FORMUL>
      4PP    C23 H24 N4 O2

>  <HET>
 4PP  C 500      29

>  <HETNAM>
     4PP (2S)-(3'-AMIDINO-3-BIPHENYL)-5-(4-PYRIDYLAMINO)PENTANOI
   2 4PP C ACID

>  <Name>
4PP.pdb

>  <RI>
0

>  <Rbt.Current_Directory>
/home/malgorzata/Desktop/rDOCK_IFD/Wyniki/7_factor_Xa/IFD

>  <Rbt.Executable>
rbdock ($Id: //depot/dev/client3/rdock/2013.1/src/exe/rbdock.cxx#4 $)

>  <Rbt.Library>
libRbt.so (2013.1, Build901 2013/11/27)

>  <Rbt.Parameter_File>
/home/malgorzata/Desktop/rDock_2013.1_src/data/scripts/dock.prm

>  <Rbt.Receptor>
cavity.prm

>  <SCORE>
-40.2035

>  <SCORE.INTER>
-20.096

>  <SCORE.INTER.CONST>
1

>  <SCORE.INTER.POLAR>
-1.26435

>  <SCORE.INTER.REPUL>
0

>  <SCORE.INTER.ROT>
9

>  <SCORE.INTER.VDW>
-30.1972

>  <SCORE.INTER.norm>
-0.692967

>  <SCORE.INTRA>
-2.66864

>  <SCORE.INTRA.DIHEDRAL>
-6.60167

>  <SCORE.INTRA.DIHEDRAL.0>
20.1331

>  <SCORE.INTRA.POLAR>
0

>  <SCORE.INTRA.POLAR.0>
0

>  <SCORE.INTRA.REPUL>
0

>  <SCORE.INTRA.REPUL.0>
0

>  <SCORE.INTRA.VDW>
0.63219

>  <SCORE.INTRA.VDW.0>
0.0644272

>  <SCORE.INTRA.norm>
-0.0920222

>  <SCORE.RESTR>
0

>  <SCORE.RESTR.CAVITY>
0

>  <SCORE.RESTR.norm>
0

>  <SCORE.SYSTEM>
-17.4388

>  <SCORE.SYSTEM.CONST>
0

>  <SCORE.SYSTEM.DIHEDRAL>
5.47299

>  <SCORE.SYSTEM.POLAR>
-6.0281

>  <SCORE.SYSTEM.REPUL>
0.142171

>  <SCORE.SYSTEM.VDW>
-0.390601

>  <SCORE.SYSTEM.norm>
-0.601338

>  <SCORE.heavy>
29

>  <SCORE.norm>
-1.38633

$$$$
4PP.pdb
  rDOCK(R)          3D
libRbt.so/2013.1/901 2013/11/27
 34 36  0  0  0  0  0  0  0  0999 V2000
    4.9938    1.1142   23.0436 C   0  0  0  0  0  0
    3.8201    1.1845   23.4337 O   0  0  0  0  0  0
    5.7829    0.0606   23.4183 O   0  0  0  0  0  0
    2.2227    6.2137   25.9700 N   0  0  0  0  0  0
    2.2697    5.4945   24.7596 C   0  0  0  0  0  0
    3.5095    5.2833   24.1216 C   0  0  0  0  0  0
    4.6964    5.7899   24.6899 C   0  0  0  0  0  0
    4.6439    6.5141   25.9140 C   0  0  0  0  0  0
    3.4094    6.7212   26.5458 C   0  0  0  0  0  0
    5.9794    5.5436   23.9797 N   0  0  0  0  0  0
    5.5453    2.2226   22.1242 C   0  0  0  0  0  0
    6.6696    2.9988   22.8145 C   0  0  0  0  0  0
    6.8449    4.3136   22.0609 C   0  0  0  0  0  0
    5.7969    5.3167   22.5295 C   0  0  0  0  0  0
   10.2704   -2.2158   15.6710 N   0  0  0  0  0  0
   12.2325   -2.9051   16.6195 N   0  0  0  0  0  0
   11.1204   -2.2005   16.6811 C   0  0  0  0  0  0
    6.8573    0.4636   18.3263 C   0  0  0  0  0  0
    5.5426    0.9881   18.4624 C   0  0  0  0  0  0
    5.1315    1.5555   19.6964 C   0  0  0  0  0  0
    6.0287    1.6020   20.8034 C   0  0  0  0  0  0
    7.3544    1.0734   20.6731 C   0  0  0  0  0  0
    7.7727    0.5027   19.4322 C   0  0  0  0  0  0
   11.5269   -0.3638   20.0862 C   0  0  0  0  0  0
   10.2177    0.1714   20.2642 C   0  0  0  0  0  0
    9.2099   -0.0664   19.2757 C   0  0  0  0  0  0
    9.5265   -0.8347   18.1248 C   0  0  0  0  0  0
   10.8255   -1.3706   17.9450 C   0  0  0  0  0  0
   11.8308   -1.1358   18.9247 C   0  0  0  0  0  0
    5.4261   -0.6283   23.9438 H   0  0  0  0  0  0
    6.8564    5.5327   24.4269 H   0  0  0  0  0  0
   10.4695   -2.7499   14.8683 H   0  0  0  0  0  0
   12.4328   -3.4397   15.8175 H   0  0  0  0  0  0
   12.8630   -2.8968   17.3756 H   0  0  0  0  0  0
  1  2  2  0  0  0
  1  3  1  0  0  0
  1 11  1  0  0  0
  3 30  1  0  0  0
  4  5  2  0  0  0
  4  9  1  0  0  0
  5  6  1  0  0  0
  6  7  2  0  0  0
  7  8  1  0  0  0
  7 10  1  0  0  0
  8  9  2  0  0  0
 10 14  1  0  0  0
 10 31  1  0  0  0
 11 12  1  0  0  0
 11 21  1  0  0  0
 12 13  1  0  0  0
 13 14  1  0  0  0
 15 17  2  0  0  0
 15 32  1  0  0  0
 16 17  1  0  0  0
 16 33  1  0  0  0
 16 34  1  0  0  0
 17 28  1  0  0  0
 18 19  2  0  0  0
 18 23  1  0  0  0
 19 20  1  0  0  0
 20 21  2  0  0  0
 21 22  1  0  0  0
 22 23  2  0  0  0
 23 26  1  0  0  0
 24 25  2  0  0  0
 24 29  1  0  0  0
 25 26  1  0  0  0
 26 27  2  0  0  0
 27 28  1  0  0  0
 28 29  2  0  0  0
M  END
>  <CHROM.0>
-116.23585560,-53.11076004,-170.50715668,37.99146723,60.75524860,-179.73525624
-103.92426555,-44.85796245,178.36074473,179.72376722,-156.49613154,135.04772746

>  <CHROM.1>
2.43016036,115.48079877,24.64601799,-146.13455872,-162.14399206,93.68232397
81.48757581,60.13169856,12.14222060,168.51312836,6.94212331,1.84531182,21.28297647
2.16644059,0.06540134,0.76347339

>  <FORMUL>
      4PP    C23 H24 N4 O2

>  <HET>
 4PP  C 500      29

>  <HETNAM>
     4PP (2S)-(3'-AMIDINO-3-BIPHENYL)-5-(4-PYRIDYLAMINO)PENTANOI
   2 4PP C ACID

>  <Name>
4PP.pdb

>  <RI>
0

>  <Rbt.Current_Directory>
/home/malgorzata/Desktop/rDOCK_IFD/Wyniki/7_factor_Xa/IFD

>  <Rbt.Executable>
rbdock ($Id: //depot/dev/client3/rdock/2013.1/src/exe/rbdock.cxx#4 $)

>  <Rbt.Library>
libRbt.so (2013.1, Build901 2013/11/27)

>  <Rbt.Parameter_File>
/home/malgorzata/Desktop/rDock_2013.1_src/data/scripts/dock.prm

>  <Rbt.Receptor>
cavity.prm

>  <SCORE>
-39.0439

>  <SCORE.INTER>
-20.6694

>  <SCORE.INTER.CONST>
1

>  <SCORE.INTER.POLAR>
-1.41381

>  <SCORE.INTER.REPUL>
0

>  <SCORE.INTER.ROT>
9

>  <SCORE.INTER.VDW>
-30.2625

>  <SCORE.INTER.norm>
-0.71274

>  <SCORE.INTRA>
-5.12049

>  <SCORE.INTRA.DIHEDRAL>
-10.3571

>  <SCORE.INTRA.DIHEDRAL.0>
20.1331

>  <SCORE.INTRA.POLAR>
0

>  <SCORE.INTRA.POLAR.0>
0

>  <SCORE.INTRA.REPUL>
0

>  <SCORE.INTRA.REPUL.0>
0

>  <SCORE.INTRA.VDW>
0.0580762

>  <SCORE.INTRA.VDW.0>
0.0644272

>  <SCORE.INTRA.norm>
-0.176569

>  <SCORE.RESTR>
0

>  <SCORE.RESTR.CAVITY>
0

>  <SCORE.RESTR.norm>
0

>  <SCORE.SYSTEM>
-13.2539

>  <SCORE.SYSTEM.CONST>
0

>  <SCORE.SYSTEM.DIHEDRAL>
10.1094

>  <SCORE.SYSTEM.POLAR>
-6.27552

>  <SCORE.SYSTEM.REPUL>
0.0645761

>  <SCORE.SYSTEM.VDW>
2.70524

>  <SCORE.SYSTEM.norm>
-0.457032

>  <SCORE.heavy>
29

>  <SCORE.norm>
-1.34634

$$$$
4PP.pdb
  rDOCK(R)          3D
libRbt.so/2013.1/901 2013/11/27
 34 36  0  0  0  0  0  0  0  0999 V2000
    4.6587    3.6534   19.8086 C   0  0  0  0  0  0
    5.1344    4.0804   18.7474 O   0  0  0  0  0  0
    3.3035    3.5316   19.9568 O   0  0  0  0  0  0
   12.1129   -1.2953   20.7997 N   0  0  0  0  0  0
   11.2323   -1.0357   21.8681 C   0  0  0  0  0  0
    9.9678   -0.4682   21.6075 C   0  0  0  0  0  0
    9.5861   -0.1601   20.2854 C   0  0  0  0  0  0
   10.4787   -0.4262   19.2092 C   0  0  0  0  0  0
   11.7347   -0.9913   19.4724 C   0  0  0  0  0  0
    8.2439    0.4388   20.0604 N   0  0  0  0  0  0
    5.6144    3.2528   20.9504 C   0  0  0  0  0  0
    7.0575    3.1553   20.4491 C   0  0  0  0  0  0
    7.8501    2.3729   21.4915 C   0  0  0  0  0  0
    7.5959    0.8802   21.3146 C   0  0  0  0  0  0
   10.5308    7.5399   26.0425 N   0  0  0  0  0  0
   10.7472    9.8059   25.8352 N   0  0  0  0  0  0
   10.1629    8.6779   25.4837 C   0  0  0  0  0  0
    5.2127    6.1019   24.2612 C   0  0  0  0  0  0
    4.3668    4.9615   24.1841 C   0  0  0  0  0  0
    4.5083    4.0470   23.1083 C   0  0  0  0  0  0
    5.4936    4.2650   22.1012 C   0  0  0  0  0  0
    6.3480    5.4135   22.1722 C   0  0  0  0  0  0
    6.2098    6.3356   23.2544 C   0  0  0  0  0  0
    7.8274    9.8314   22.5944 C   0  0  0  0  0  0
    6.9574    8.7077   22.4832 C   0  0  0  0  0  0
    7.1353    7.5802   23.3472 C   0  0  0  0  0  0
    8.1801    7.5933   24.3081 C   0  0  0  0  0  0
    9.0455    8.7089   24.4237 C   0  0  0  0  0  0
    8.8729    9.8316   23.5662 C   0  0  0  0  0  0
    2.9467    3.2201   20.7653 H   0  0  0  0  0  0
    7.8307    0.5316   19.1716 H   0  0  0  0  0  0
   11.2461    7.5322   26.7189 H   0  0  0  0  0  0
   11.4626    9.7998   26.5115 H   0  0  0  0  0  0
   10.4682   10.6545   25.4214 H   0  0  0  0  0  0
  1  2  2  0  0  0
  1  3  1  0  0  0
  1 11  1  0  0  0
  3 30  1  0  0  0
  4  5  2  0  0  0
  4  9  1  0  0  0
  5  6  1  0  0  0
  6  7  2  0  0  0
  7  8  1  0  0  0
  7 10  1  0  0  0
  8  9  2  0  0  0
 10 14  1  0  0  0
 10 31  1  0  0  0
 11 12  1  0  0  0
 11 21  1  0  0  0
 12 13  1  0  0  0
 13 14  1  0  0  0
 15 17  2  0  0  0
 15 32  1  0  0  0
 16 17  1  0  0  0
 16 33  1  0  0  0
 16 34  1  0  0  0
 17 28  1  0  0  0
 18 19  2  0  0  0
 18 23  1  0  0  0
 19 20  1  0  0  0
 20 21  2  0  0  0
 21 22  1  0  0  0
 22 23  2  0  0  0
 23 26  1  0  0  0
 24 25  2  0  0  0
 24 29  1  0  0  0
 25 26  1  0  0  0
 26 27  2  0  0  0
 27 28  1  0  0  0
 28 29  2  0  0  0
M  END
>  <CHROM.0>
-81.99871181,-51.52522780,41.20963591,-171.20699668,63.67292723,-62.39202828
-170.25001492,-40.96617775,-178.89017964,4.53721334,-108.04557092,140.72420029

>  <CHROM.1>
-179.10656558,-13.13561126,11.66360566,96.78725860,-163.49776096,88.12514316
79.92320448,69.99204906,16.66547174,-106.00153893,7.78707795,4.33371030,22.14819194
1.44444700,0.29742129,-2.66996139

>  <FORMUL>
      4PP    C23 H24 N4 O2

>  <HET>
 4PP  C 500      29

>  <HETNAM>
     4PP (2S)-(3'-AMIDINO-3-BIPHENYL)-5-(4-PYRIDYLAMINO)PENTANOI
   2 4PP C ACID

>  <Name>
4PP.pdb

>  <RI>
0

>  <Rbt.Current_Directory>
/home/malgorzata/Desktop/rDOCK_IFD/Wyniki/7_factor_Xa/IFD

>  <Rbt.Executable>
rbdock ($Id: //depot/dev/client3/rdock/2013.1/src/exe/rbdock.cxx#4 $)

>  <Rbt.Library>
libRbt.so (2013.1, Build901 2013/11/27)

>  <Rbt.Parameter_File>
/home/malgorzata/Desktop/rDock_2013.1_src/data/scripts/dock.prm

>  <Rbt.Receptor>
cavity.prm

>  <SCORE>
-46.5966

>  <SCORE.INTER>
-25.2165

>  <SCORE.INTER.CONST>
1

>  <SCORE.INTER.POLAR>
-1.45708

>  <SCORE.INTER.REPUL>
0.0437762

>  <SCORE.INTER.ROT>
9

>  <SCORE.INTER.VDW>
-34.8813

>  <SCORE.INTER.norm>
-0.869534

>  <SCORE.INTRA>
-2.74985

>  <SCORE.INTRA.DIHEDRAL>
-7.17026

>  <SCORE.INTRA.DIHEDRAL.0>
20.1331

>  <SCORE.INTRA.POLAR>
0

>  <SCORE.INTRA.POLAR.0>
0

>  <SCORE.INTRA.REPUL>
0

>  <SCORE.INTRA.REPUL.0>
0

>  <SCORE.INTRA.VDW>
0.835283

>  <SCORE.INTRA.VDW.0>
0.0644272

>  <SCORE.INTRA.norm>
-0.0948224

>  <SCORE.RESTR>
0

>  <SCORE.RESTR.CAVITY>
0

>  <SCORE.RESTR.norm>
0

>  <SCORE.SYSTEM>
-18.6302

>  <SCORE.SYSTEM.CONST>
0

>  <SCORE.SYSTEM.DIHEDRAL>
4.99318

>  <SCORE.SYSTEM.POLAR>
-6.12624

>  <SCORE.SYSTEM.VDW>
-0.297602

>  <SCORE.SYSTEM.norm>
-0.642422

>  <SCORE.heavy>
29

>  <SCORE.norm>
-1.60678

$$$$
4PP.pdb
  rDOCK(R)          3D
libRbt.so/2013.1/901 2013/11/27
 34 36  0  0  0  0  0  0  0  0999 V2000
    4.6385    4.3876   23.2776 C   0  0  0  0  0  0
    3.5041    4.8286   23.5089 O   0  0  0  0  0  0
    5.1317    3.3385   24.0052 O   0  0  0  0  0  0
   11.5141    7.5242   27.2401 N   0  0  0  0  0  0
   11.0700    8.3899   26.2213 C   0  0  0  0  0  0
    9.8097    8.1769   25.6254 C   0  0  0  0  0  0
    8.9980    7.1027   26.0446 C   0  0  0  0  0  0
    9.4504    6.2320   27.0756 C   0  0  0  0  0  0
   10.7037    6.4478   27.6663 C   0  0  0  0  0  0
    7.6781    6.9171   25.3854 N   0  0  0  0  0  0
    5.4774    5.0300   22.1546 C   0  0  0  0  0  0
    6.7650    5.6412   22.7130 C   0  0  0  0  0  0
    6.4041    6.9987   23.3084 C   0  0  0  0  0  0
    7.6046    7.5653   24.0579 C   0  0  0  0  0  0
    9.7921   -0.8356   16.7068 N   0  0  0  0  0  0
   11.4631   -1.8575   17.8850 N   0  0  0  0  0  0
   10.4384   -1.0297   17.8415 C   0  0  0  0  0  0
    6.2908    2.0488   19.0416 C   0  0  0  0  0  0
    5.1523    2.8957   18.9497 C   0  0  0  0  0  0
    4.9016    3.8567   19.9632 C   0  0  0  0  0  0
    5.7843    3.9783   21.0761 C   0  0  0  0  0  0
    6.9325    3.1265   21.1755 C   0  0  0  0  0  0
    7.1893    2.1588   20.1567 C   0  0  0  0  0  0
   10.2903    0.2132   21.5248 C   0  0  0  0  0  0
    9.1495    1.0667   21.4778 C   0  0  0  0  0  0
    8.4351    1.2348   20.2487 C   0  0  0  0  0  0
    8.8723    0.5479   19.0859 C   0  0  0  0  0  0
   10.0040   -0.3032   19.1286 C   0  0  0  0  0  0
   10.7178   -0.4725   20.3482 C   0  0  0  0  0  0
    4.5693    2.8666   24.5875 H   0  0  0  0  0  0
    6.9329    6.4165   25.7894 H   0  0  0  0  0  0
   10.0787   -1.3054   15.8905 H   0  0  0  0  0  0
   11.7508   -2.3280   17.0695 H   0  0  0  0  0  0
   11.9409   -2.0053   18.7330 H   0  0  0  0  0  0
  1  2  2  0  0  0
  1  3  1  0  0  0
  1 11  1  0  0  0
  3 30  1  0  0  0
  4  5  2  0  0  0
  4  9  1  0  0  0
  5  6  1  0  0  0
  6  7  2  0  0  0
  7  8  1  0  0  0
  7 10  1  0  0  0
  8  9  2  0  0  0
 10 14  1  0  0  0
 10 31  1  0  0  0
 11 12  1  0  0  0
 11 21  1  0  0  0
 12 13  1  0  0  0
 13 14  1  0  0  0
 15 17  2  0  0  0
 15 32  1  0  0  0
 16 17  1  0  0  0
 16 33  1  0  0  0
 16 34  1  0  0  0
 17 28  1  0  0  0
 18 19  2  0  0  0
 18 23  1  0  0  0
 19 20  1  0  0  0
 20 21  2  0  0  0
 21 22  1  0  0  0
 22 23  2  0  0  0
 23 26  1  0  0  0
 24 25  2  0  0  0
 24 29  1  0  0  0
 25 26  1  0  0  0
 26 27  2  0  0  0
 27 28  1  0  0  0
 28 29  2  0  0  0
M  END
>  <CHROM.0>
-97.62782852,-177.57273945,-11.28265872,36.56586336,-68.24531181,178.99706705
-110.87505988,59.67234726,64.45064619,-156.54773042,-121.14150926,-177.03665568

>  <CHROM.1>
9.38386861,118.22104910,21.41118991,164.00099168,-80.35448828,92.41080602
171.84843126,-79.80096230,1.90084371,-163.62089262,8.04408739,3.63486217
22.19517167,1.63466289,-0.26792591,0.79305416

>  <FORMUL>
      4PP    C23 H24 N4 O2

>  <HET>
 4PP  C 500      29

>  <HETNAM>
     4PP (2S)-(3'-AMIDINO-3-BIPHENYL)-5-(4-PYRIDYLAMINO)PENTANOI
   2 4PP C ACID

>  <Name>
4PP.pdb

>  <RI>
0

>  <Rbt.Current_Directory>
/home/malgorzata/Desktop/rDOCK_IFD/Wyniki/7_factor_Xa/IFD

>  <Rbt.Executable>
rbdock ($Id: //depot/dev/client3/rdock/2013.1/src/exe/rbdock.cxx#4 $)

>  <Rbt.Library>
libRbt.so (2013.1, Build901 2013/11/27)

>  <Rbt.Parameter_File>
/home/malgorzata/Desktop/rDock_2013.1_src/data/scripts/dock.prm

>  <Rbt.Receptor>
cavity.prm

>  <SCORE>
-40.054

>  <SCORE.INTER>
-21.2046

>  <SCORE.INTER.CONST>
1

>  <SCORE.INTER.POLAR>
-0.974592

>  <SCORE.INTER.REPUL>
0.133343

>  <SCORE.INTER.ROT>
9

>  <SCORE.INTER.VDW>
-32.9577

>  <SCORE.INTER.norm>
-0.731193

>  <SCORE.INTRA>
-5.02994

>  <SCORE.INTRA.DIHEDRAL>
-10.5115

>  <SCORE.INTRA.DIHEDRAL.0>
20.1331

>  <SCORE.INTRA.POLAR>
0

>  <SCORE.INTRA.POLAR.0>
0

>  <SCORE.INTRA.REPUL>
0

>  <SCORE.INTRA.REPUL.0>
0

>  <SCORE.INTRA.VDW>
0.225819

>  <SCORE.INTRA.VDW.0>
0.0644272

>  <SCORE.INTRA.norm>
-0.173446

>  <SCORE.RESTR>
0

>  <SCORE.RESTR.CAVITY>
0

>  <SCORE.RESTR.norm>
0

>  <SCORE.SYSTEM>
-13.8195

>  <SCORE.SYSTEM.CONST>
0

>  <SCORE.SYSTEM.DIHEDRAL>
12.1454

>  <SCORE.SYSTEM.POLAR>
-6.41255

>  <SCORE.SYSTEM.REPUL>
0.020375

>  <SCORE.SYSTEM.VDW>
1.80857

>  <SCORE.SYSTEM.norm>
-0.476534

>  <SCORE.heavy>
29

>  <SCORE.norm>
-1.38117

$$$$
4PP.pdb
  rDOCK(R)          3D
libRbt.so/2013.1/901 2013/11/27
 34 36  0  0  0  0  0  0  0  0999 V2000
    2.9987    2.1815   21.1290 C   0  0  0  0  0  0
    3.0700    2.6160   22.2869 O   0  0  0  0  0  0
    2.2608    1.0612   20.8574 O   0  0  0  0  0  0
    1.3205   10.2988   23.8232 N   0  0  0  0  0  0
    0.7634   10.4202   22.5350 C   0  0  0  0  0  0
    1.1591    9.5278   21.5172 C   0  0  0  0  0  0
    2.1084    8.5201   21.7853 C   0  0  0  0  0  0
    2.6669    8.4004   23.0889 C   0  0  0  0  0  0
    2.2701    9.2890   24.0984 C   0  0  0  0  0  0
    2.4958    7.6042   20.6798 N   0  0  0  0  0  0
    3.7426    2.9262   20.0022 C   0  0  0  0  0  0
    4.2476    4.2882   20.4851 C   0  0  0  0  0  0
    3.0536    5.2377   20.5001 C   0  0  0  0  0  0
    3.4694    6.5745   21.1036 C   0  0  0  0  0  0
   13.0305   -1.0297   20.6502 N   0  0  0  0  0  0
   11.5725   -1.6208   18.9921 N   0  0  0  0  0  0
   11.8367   -0.9457   20.0928 C   0  0  0  0  0  0
    7.0045    0.4238   18.4733 C   0  0  0  0  0  0
    5.8017    0.5745   17.7301 C   0  0  0  0  0  0
    4.7547    1.3881   18.2357 C   0  0  0  0  0  0
    4.9002    2.0555   19.4871 C   0  0  0  0  0  0
    6.1093    1.9061   20.2419 C   0  0  0  0  0  0
    7.1662    1.0893   19.7357 C   0  0  0  0  0  0
    9.8986    1.4048   22.5119 C   0  0  0  0  0  0
    8.6740    1.5749   21.8023 C   0  0  0  0  0  0
    8.4851    0.9257   20.5405 C   0  0  0  0  0  0
    9.5231    0.1173   20.0075 C   0  0  0  0  0  0
   10.7408   -0.0565   20.7103 C   0  0  0  0  0  0
   10.9333    0.5879   21.9646 C   0  0  0  0  0  0
    1.8163    0.6135   21.5502 H   0  0  0  0  0  0
    2.1421    7.6756   19.7638 H   0  0  0  0  0  0
   13.7231   -1.6012   20.2467 H   0  0  0  0  0  0
   12.2642   -2.1927   18.5874 H   0  0  0  0  0  0
   10.6835   -1.5532   18.5745 H   0  0  0  0  0  0
  1  2  2  0  0  0
  1  3  1  0  0  0
  1 11  1  0  0  0
  3 30  1  0  0  0
  4  5  2  0  0  0
  4  9  1  0  0  0
  5  6  1  0  0  0
  6  7  2  0  0  0
  7  8  1  0  0  0
  7 10  1  0  0  0
  8  9  2  0  0  0
 10 14  1  0  0  0
 10 31  1  0  0  0
 11 12  1  0  0  0
 11 21  1  0  0  0
 12 13  1  0  0  0
 13 14  1  0  0  0
 15 17  2  0  0  0
 15 32  1  0  0  0
 16 17  1  0  0  0
 16 33  1  0  0  0
 16 34  1  0  0  0
 17 28  1  0  0  0
 18 19  2  0  0  0
 18 23  1  0  0  0
 19 20  1  0  0  0
 20 21  2  0  0  0
 21 22  1  0  0  0
 22 23  2  0  0  0
 23 26  1  0  0  0
 24 25  2  0  0  0
 24 29  1  0  0  0
 25 26  1  0  0  0
 26 27  2  0  0  0
 27 28  1  0  0  0
 28 29  2  0  0  0
M  END
>  <CHROM.0>
113.66067350,-51.63867895,13.80651178,-173.18859699,62.36702935,179.82405462
80.45803237,60.54445852,-59.01408027,11.37920446,-103.45036449,134.76415810

>  <CHROM.1>
-0.79837837,-11.34330837,-178.47808968,137.10051330,-77.61217599,104.35817412
174.47940101,159.94106966,173.40730906,-179.89638653,5.68654324,3.34290306
20.86786824,2.36922224,-0.28633786,0.51857206

>  <FORMUL>
      4PP    C23 H24 N4 O2

>  <HET>
 4PP  C 500      29

>  <HETNAM>
     4PP (2S)-(3'-AMIDINO-3-BIPHENYL)-5-(4-PYRIDYLAMINO)PENTANOI
   2 4PP C ACID

>  <Name>
4PP.pdb

>  <RI>
0

>  <Rbt.Current_Directory>
/home/malgorzata/Desktop/rDOCK_IFD/Wyniki/7_factor_Xa/IFD

>  <Rbt.Executable>
rbdock ($Id: //depot/dev/client3/rdock/2013.1/src/exe/rbdock.cxx#4 $)

>  <Rbt.Library>
libRbt.so (2013.1, Build901 2013/11/27)

>  <Rbt.Parameter_File>
/home/malgorzata/Desktop/rDock_2013.1_src/data/scripts/dock.prm

>  <Rbt.Receptor>
cavity.prm

>  <SCORE>
-33.332

>  <SCORE.INTER>
-10.2092

>  <SCORE.INTER.CONST>
1

>  <SCORE.INTER.POLAR>
-1.35758

>  <SCORE.INTER.REPUL>
0

>  <SCORE.INTER.ROT>
9

>  <SCORE.INTER.VDW>
-19.9934

>  <SCORE.INTER.norm>
-0.35204

>  <SCORE.INTRA>
-6.00059

>  <SCORE.INTRA.DIHEDRAL>
-13.3806

>  <SCORE.INTRA.DIHEDRAL.0>
20.1331

>  <SCORE.INTRA.POLAR>
0

>  <SCORE.INTRA.POLAR.0>
0

>  <SCORE.INTRA.REPUL>
0

>  <SCORE.INTRA.REPUL.0>
0

>  <SCORE.INTRA.VDW>
0.689688

>  <SCORE.INTRA.VDW.0>
0.0644272

>  <SCORE.INTRA.norm>
-0.206917

>  <SCORE.RESTR>
0

>  <SCORE.RESTR.CAVITY>
0

>  <SCORE.RESTR.norm>
0

>  <SCORE.SYSTEM>
-17.1222

>  <SCORE.SYSTEM.CONST>
0

>  <SCORE.SYSTEM.DIHEDRAL>
4.5348

>  <SCORE.SYSTEM.POLAR>
-6.12934

>  <SCORE.SYSTEM.REPUL>
0.094557

>  <SCORE.SYSTEM.VDW>
0.977338

>  <SCORE.SYSTEM.norm>
-0.590422

>  <SCORE.heavy>
29

>  <SCORE.norm>
-1.14938

$$$$
4PP.pdb
  rDOCK(R)          3D
libRbt.so/2013.1/901 2013/11/27
 34 36  0  0  0  0  0  0  0  0999 V2000
    4.8558    4.6204   20.1363 C   0  0  0  0  0  0
    3.9846    4.5168   19.2617 O   0  0  0  0  0  0
    6.1673    4.3691   19.8360 O   0  0  0  0  0  0
    3.3472   -2.1263   22.7690 N   0  0  0  0  0  0
    4.0181   -1.4626   23.8149 C   0  0  0  0  0  0
    4.0203   -0.0530   23.8582 C   0  0  0  0  0  0
    3.3566    0.6896   22.8600 C   0  0  0  0  0  0
    2.6786    0.0143   21.8065 C   0  0  0  0  0  0
    2.6779   -1.3874   21.7674 C   0  0  0  0  0  0
    3.3882    2.1737   22.9469 N   0  0  0  0  0  0
    4.4419    5.0457   21.5594 C   0  0  0  0  0  0
    5.3306    4.3780   22.6118 C   0  0  0  0  0  0
    4.4760    4.1571   23.8561 C   0  0  0  0  0  0
    4.2362    2.6647   24.0548 C   0  0  0  0  0  0
    9.6949    7.6694   25.5119 N   0  0  0  0  0  0
   10.6597    9.7141   25.8483 N   0  0  0  0  0  0
    9.8281    8.9402   25.1799 C   0  0  0  0  0  0
    4.5339    9.4202   21.8688 C   0  0  0  0  0  0
    3.3363    8.7480   21.5001 C   0  0  0  0  0  0
    3.3201    7.3323   21.4050 C   0  0  0  0  0  0
    4.4990    6.5776   21.6755 C   0  0  0  0  0  0
    5.7097    7.2493   22.0457 C   0  0  0  0  0  0
    5.7299    8.6742   22.1440 C   0  0  0  0  0  0
    8.6640   11.2522   22.2760 C   0  0  0  0  0  0
    7.4603   10.6015   21.8765 C   0  0  0  0  0  0
    7.0339    9.4137   22.5524 C   0  0  0  0  0  0
    7.8175    8.8947   23.6162 C   0  0  0  0  0  0
    9.0132    9.5395   24.0181 C   0  0  0  0  0  0
    9.4413   10.7200   23.3484 C   0  0  0  0  0  0
    6.4218    4.2050   18.9493 H   0  0  0  0  0  0
    2.8972    2.7660   22.3326 H   0  0  0  0  0  0
   10.2210    7.2974   26.2563 H   0  0  0  0  0  0
   11.1864    9.3434   26.5929 H   0  0  0  0  0  0
   10.7542   10.6628   25.6030 H   0  0  0  0  0  0
  1  2  2  0  0  0
  1  3  1  0  0  0
  1 11  1  0  0  0
  3 30  1  0  0  0
  4  5  2  0  0  0
  4  9  1  0  0  0
  5  6  1  0  0  0
  6  7  2  0  0  0
  7  8  1  0  0  0
  7 10  1  0  0  0
  8  9  2  0  0  0
 10 14  1  0  0  0
 10 31  1  0  0  0
 11 12  1  0  0  0
 11 21  1  0  0  0
 12 13  1  0  0  0
 13 14  1  0  0  0
 15 17  2  0  0  0
 15 32  1  0  0  0
 16 17  1  0  0  0
 16 33  1  0  0  0
 16 34  1  0  0  0
 17 28  1  0  0  0
 18 19  2  0  0  0
 18 23  1  0  0  0
 19 20  1  0  0  0
 20 21  2  0  0  0
 21 22  1  0  0  0
 22 23  2  0  0  0
 23 26  1  0  0  0
 24 25  2  0  0  0
 24 29  1  0  0  0
 25 26  1  0  0  0
 26 27  2  0  0  0
 27 28  1  0  0  0
 28 29  2  0  0  0
M  END
>  <CHROM.0>
-106.25743176,-179.54451884,-170.40864291,-172.29093238,64.46677331,-63.50960835
-100.51374917,61.86812601,-175.98082858,10.41097254,-173.94658540,172.41630754

>  <CHROM.1>
6.35145737,146.83876259,4.70088049,166.40954082,-148.07007158,92.18755413
111.18907968,-67.03353867,21.78788936,-43.56817242,5.66270653,5.54556239
22.61404442,2.24099890,0.74309932,2.75663521

>  <FORMUL>
      4PP    C23 H24 N4 O2

>  <HET>
 4PP  C 500      29

>  <HETNAM>
     4PP (2S)-(3'-AMIDINO-3-BIPHENYL)-5-(4-PYRIDYLAMINO)PENTANOI
   2 4PP C ACID

>  <Name>
4PP.pdb

>  <RI>
0

>  <Rbt.Current_Directory>
/home/malgorzata/Desktop/rDOCK_IFD/Wyniki/7_factor_Xa/IFD

>  <Rbt.Executable>
rbdock ($Id: //depot/dev/client3/rdock/2013.1/src/exe/rbdock.cxx#4 $)

>  <Rbt.Library>
libRbt.so (2013.1, Build901 2013/11/27)

>  <Rbt.Parameter_File>
/home/malgorzata/Desktop/rDock_2013.1_src/data/scripts/dock.prm

>  <Rbt.Receptor>
cavity.prm

>  <SCORE>
-42.0118

>  <SCORE.INTER>
-20.2973

>  <SCORE.INTER.CONST>
1

>  <SCORE.INTER.POLAR>
-1.5436

>  <SCORE.INTER.REPUL>
0

>  <SCORE.INTER.ROT>
9

>  <SCORE.INTER.VDW>
-29.4491

>  <SCORE.INTER.norm>
-0.699906

>  <SCORE.INTRA>
-0.903833

>  <SCORE.INTRA.DIHEDRAL>
-2.26973

>  <SCORE.INTRA.DIHEDRAL.0>
20.1331

>  <SCORE.INTRA.POLAR>
0

>  <SCORE.INTRA.POLAR.0>
0

>  <SCORE.INTRA.REPUL>
0

>  <SCORE.INTRA.REPUL.0>
0

>  <SCORE.INTRA.VDW>
0.231033

>  <SCORE.INTRA.VDW.0>
0.0644272

>  <SCORE.INTRA.norm>
-0.0311666

>  <SCORE.RESTR>
0

>  <SCORE.RESTR.CAVITY>
0

>  <SCORE.RESTR.norm>
0

>  <SCORE.SYSTEM>
-20.8107

>  <SCORE.SYSTEM.CONST>
0

>  <SCORE.SYSTEM.DIHEDRAL>
7.86456

>  <SCORE.SYSTEM.POLAR>
-6.98578

>  <SCORE.SYSTEM.VDW>
-0.991303

>  <SCORE.SYSTEM.norm>
-0.717609

>  <SCORE.heavy>
29

>  <SCORE.norm>
-1.44868

$$$$
4PP.pdb
  rDOCK(R)          3D
libRbt.so/2013.1/901 2013/11/27
 34 36  0  0  0  0  0  0  0  0999 V2000
    5.4500    1.4307   22.1328 C   0  0  0  0  0  0
    4.3212    1.0593   21.7826 O   0  0  0  0  0  0
    5.9334    1.0955   23.3686 O   0  0  0  0  0  0
    2.8111    7.3059   26.5887 N   0  0  0  0  0  0
    1.7551    7.1110   25.6769 C   0  0  0  0  0  0
    1.9362    6.2516   24.5734 C   0  0  0  0  0  0
    3.1674    5.5916   24.3814 C   0  0  0  0  0  0
    4.2306    5.7902   25.3065 C   0  0  0  0  0  0
    4.0463    6.6447   26.4029 C   0  0  0  0  0  0
    3.3116    4.6970   23.2025 N   0  0  0  0  0  0
    6.3018    2.2637   21.1539 C   0  0  0  0  0  0
    6.6419    3.6319   21.7501 C   0  0  0  0  0  0
    5.3366    4.4117   21.8751 C   0  0  0  0  0  0
    4.6214    4.0112   23.1606 C   0  0  0  0  0  0
   11.9220   -3.6943   15.3221 N   0  0  0  0  0  0
   12.8784   -1.8650   16.3038 N   0  0  0  0  0  0
   11.8028   -2.5459   15.9623 C   0  0  0  0  0  0
    9.9688    0.0639   20.1772 C   0  0  0  0  0  0
    9.8603    0.7777   21.4022 C   0  0  0  0  0  0
    8.6677    1.4841   21.7063 C   0  0  0  0  0  0
    7.5760    1.4846   20.7894 C   0  0  0  0  0  0
    7.6798    0.7687   19.5522 C   0  0  0  0  0  0
    8.8780    0.0551   19.2430 C   0  0  0  0  0  0
    8.0168   -1.6605   15.8389 C   0  0  0  0  0  0
    7.8686   -0.9308   17.0545 C   0  0  0  0  0  0
    9.0000   -0.7316   17.9087 C   0  0  0  0  0  0
   10.2613   -1.2651   17.5349 C   0  0  0  0  0  0
   10.4136   -1.9888   16.3266 C   0  0  0  0  0  0
    9.2913   -2.1901   15.4748 C   0  0  0  0  0  0
    5.4200    0.5633   23.9440 H   0  0  0  0  0  0
    2.6102    4.5744   22.5225 H   0  0  0  0  0  0
   12.8151   -4.0406   15.0945 H   0  0  0  0  0  0
   13.7721   -2.2101   16.0769 H   0  0  0  0  0  0
   12.7882   -1.0113   16.7857 H   0  0  0  0  0  0
  1  2  2  0  0  0
  1  3  1  0  0  0
  1 11  1  0  0  0
  3 30  1  0  0  0
  4  5  2  0  0  0
  4  9  1  0  0  0
  5  6  1  0  0  0
  6  7  2  0  0  0
  7  8  1  0  0  0
  7 10  1  0  0  0
  8  9  2  0  0  0
 10 14  1  0  0  0
 10 31  1  0  0  0
 11 12  1  0  0  0
 11 21  1  0  0  0
 12 13  1  0  0  0
 13 14  1  0  0  0
 15 17  2  0  0  0
 15 32  1  0  0  0
 16 17  1  0  0  0
 16 33  1  0  0  0
 16 34  1  0  0  0
 17 28  1  0  0  0
 18 19  2  0  0  0
 18 23  1  0  0  0
 19 20  1  0  0  0
 20 21  2  0  0  0
 21 22  1  0  0  0
 22 23  2  0  0  0
 23 26  1  0  0  0
 24 25  2  0  0  0
 24 29  1  0  0  0
 25 26  1  0  0  0
 26 27  2  0  0  0
 27 28  1  0  0  0
 28 29  2  0  0  0
M  END
>  <CHROM.0>
-96.14865678,-50.40979236,-174.29800612,37.76564605,-67.62570240,-178.95837012
-106.40803165,-42.04142491,178.11851669,14.70930127,-93.44435891,129.69200816

>  <CHROM.1>
1.70459236,119.87262431,-176.81185722,-119.68910240,-66.47799694,-79.75340967
82.90167793,-175.44867952,145.57133792,170.31545869,7.01238636,1.69423266
20.79043390,2.15700378,-0.20079727,0.95455349

>  <FORMUL>
      4PP    C23 H24 N4 O2

>  <HET>
 4PP  C 500      29

>  <HETNAM>
     4PP (2S)-(3'-AMIDINO-3-BIPHENYL)-5-(4-PYRIDYLAMINO)PENTANOI
   2 4PP C ACID

>  <Name>
4PP.pdb

>  <RI>
0

>  <Rbt.Current_Directory>
/home/malgorzata/Desktop/rDOCK_IFD/Wyniki/7_factor_Xa/IFD

>  <Rbt.Executable>
rbdock ($Id: //depot/dev/client3/rdock/2013.1/src/exe/rbdock.cxx#4 $)

>  <Rbt.Library>
libRbt.so (2013.1, Build901 2013/11/27)

>  <Rbt.Parameter_File>
/home/malgorzata/Desktop/rDock_2013.1_src/data/scripts/dock.prm

>  <Rbt.Receptor>
cavity.prm

>  <SCORE>
-33.3499

>  <SCORE.INTER>
-16.0629

>  <SCORE.INTER.CONST>
1

>  <SCORE.INTER.POLAR>
-0.546995

>  <SCORE.INTER.REPUL>
0

>  <SCORE.INTER.ROT>
9

>  <SCORE.INTER.VDW>
-28.6032

>  <SCORE.INTER.norm>
-0.553894

>  <SCORE.INTRA>
-4.4775

>  <SCORE.INTRA.DIHEDRAL>
-9.80198

>  <SCORE.INTRA.DIHEDRAL.0>
20.1331

>  <SCORE.INTRA.POLAR>
0

>  <SCORE.INTRA.POLAR.0>
0

>  <SCORE.INTRA.REPUL>
0

>  <SCORE.INTRA.REPUL.0>
0

>  <SCORE.INTRA.VDW>
0.423488

>  <SCORE.INTRA.VDW.0>
0.0644272

>  <SCORE.INTRA.norm>
-0.154397

>  <SCORE.RESTR>
0

>  <SCORE.RESTR.CAVITY>
0

>  <SCORE.RESTR.norm>
0

>  <SCORE.SYSTEM>
-12.8095

>  <SCORE.SYSTEM.CONST>
0

>  <SCORE.SYSTEM.DIHEDRAL>
11.2032

>  <SCORE.SYSTEM.POLAR>
-6.28823

>  <SCORE.SYSTEM.VDW>
2.96888

>  <SCORE.SYSTEM.norm>
-0.441707

>  <SCORE.heavy>
29

>  <SCORE.norm>
-1.15

$$$$
4PP.pdb
  rDOCK(R)          3D
libRbt.so/2013.1/901 2013/11/27
 34 36  0  0  0  0  0  0  0  0999 V2000
    3.6776    1.0312   19.2568 C   0  0  0  0  0  0
    2.8479    1.7862   18.7310 O   0  0  0  0  0  0
    3.2778   -0.1578   19.8042 O   0  0  0  0  0  0
    3.1614   -0.1278   26.8837 N   0  0  0  0  0  0
    2.6008    1.1636   26.8334 C   0  0  0  0  0  0
    3.0539    2.0833   25.8650 C   0  0  0  0  0  0
    4.0636    1.7144   24.9524 C   0  0  0  0  0  0
    4.6254    0.4078   25.0060 C   0  0  0  0  0  0
    4.1715   -0.5040   25.9697 C   0  0  0  0  0  0
    4.5101    2.7187   23.9509 N   0  0  0  0  0  0
    5.1625    1.4461   19.2745 C   0  0  0  0  0  0
    5.7510    1.3183   20.6818 C   0  0  0  0  0  0
    4.9289    2.2149   21.6026 C   0  0  0  0  0  0
    5.5158    2.1807   23.0092 C   0  0  0  0  0  0
   13.5000   -3.2786   16.0457 N   0  0  0  0  0  0
   11.4276   -3.7193   15.1880 N   0  0  0  0  0  0
   12.1997   -3.0514   16.0216 C   0  0  0  0  0  0
    7.3386   -1.0005   16.3557 C   0  0  0  0  0  0
    5.9518   -0.7367   16.1849 C   0  0  0  0  0  0
    5.2602    0.0575   17.1360 C   0  0  0  0  0  0
    5.9472    0.5924   18.2650 C   0  0  0  0  0  0
    7.3444    0.3285   18.4438 C   0  0  0  0  0  0
    8.0446   -0.4691   17.4879 C   0  0  0  0  0  0
   11.7279   -0.3588   18.7894 C   0  0  0  0  0  0
   10.3378   -0.0728   18.6561 C   0  0  0  0  0  0
    9.5613   -0.7557   17.6661 C   0  0  0  0  0  0
   10.1863   -1.7132   16.8248 C   0  0  0  0  0  0
   11.5669   -2.0023   16.9555 C   0  0  0  0  0  0
   12.3430   -1.3250   17.9377 C   0  0  0  0  0  0
    2.3818   -0.4246   19.7419 H   0  0  0  0  0  0
    4.1724    3.6429   23.9181 H   0  0  0  0  0  0
   13.8933   -3.9515   15.4442 H   0  0  0  0  0  0
   11.8195   -4.3924   14.5859 H   0  0  0  0  0  0
   10.4588   -3.5451   15.1675 H   0  0  0  0  0  0
  1  2  2  0  0  0
  1  3  1  0  0  0
  1 11  1  0  0  0
  3 30  1  0  0  0
  4  5  2  0  0  0
  4  9  1  0  0  0
  5  6  1  0  0  0
  6  7  2  0  0  0
  7  8  1  0  0  0
  7 10  1  0  0  0
  8  9  2  0  0  0
 10 14  1  0  0  0
 10 31  1  0  0  0
 11 12  1  0  0  0
 11 21  1  0  0  0
 12 13  1  0  0  0
 13 14  1  0  0  0
 15 17  2  0  0  0
 15 32  1  0  0  0
 16 17  1  0  0  0
 16 33  1  0  0  0
 16 34  1  0  0  0
 17 28  1  0  0  0
 18 19  2  0  0  0
 18 23  1  0  0  0
 19 20  1  0  0  0
 20 21  2  0  0  0
 21 22  1  0  0  0
 22 23  2  0  0  0
 23 26  1  0  0  0
 24 25  2  0  0  0
 24 29  1  0  0  0
 25 26  1  0  0  0
 26 27  2  0  0  0
 27 28  1  0  0  0
 28 29  2  0  0  0
M  END
>  <CHROM.0>
143.95841520,179.16029433,-4.28240336,-169.51343763,64.16953011,-178.09846190
-166.82566358,58.06011371,60.99267397,-1.40192718,-129.38597392,138.30177950

>  <CHROM.1>
3.26743063,129.98652932,-176.77677224,117.08409641,-58.84556190,27.00040797
-177.18731178,-163.82007278,175.05158614,169.88867648,6.84545460,-0.00644342
19.99583351,2.34464132,-0.36613329,1.51506235

>  <FORMUL>
      4PP    C23 H24 N4 O2

>  <HET>
 4PP  C 500      29

>  <HETNAM>
     4PP (2S)-(3'-AMIDINO-3-BIPHENYL)-5-(4-PYRIDYLAMINO)PENTANOI
   2 4PP C ACID

>  <Name>
4PP.pdb

>  <RI>
0

>  <Rbt.Current_Directory>
/home/malgorzata/Desktop/rDOCK_IFD/Wyniki/7_factor_Xa/IFD

>  <Rbt.Executable>
rbdock ($Id: //depot/dev/client3/rdock/2013.1/src/exe/rbdock.cxx#4 $)

>  <Rbt.Library>
libRbt.so (2013.1, Build901 2013/11/27)

>  <Rbt.Parameter_File>
/home/malgorzata/Desktop/rDock_2013.1_src/data/scripts/dock.prm

>  <Rbt.Receptor>
cavity.prm

>  <SCORE>
-41.8472

>  <SCORE.INTER>
-14.7883

>  <SCORE.INTER.CONST>
1

>  <SCORE.INTER.POLAR>
0

>  <SCORE.INTER.REPUL>
0

>  <SCORE.INTER.ROT>
9

>  <SCORE.INTER.VDW>
-29.1883

>  <SCORE.INTER.norm>
-0.509943

>  <SCORE.INTRA>
-6.17207

>  <SCORE.INTRA.DIHEDRAL>
-14.78

>  <SCORE.INTRA.DIHEDRAL.0>
20.1331

>  <SCORE.INTRA.POLAR>
0

>  <SCORE.INTRA.POLAR.0>
0

>  <SCORE.INTRA.REPUL>
0

>  <SCORE.INTRA.REPUL.0>
0

>  <SCORE.INTRA.VDW>
1.21791

>  <SCORE.INTRA.VDW.0>
0.0644272

>  <SCORE.INTRA.norm>
-0.21283

>  <SCORE.RESTR>
0

>  <SCORE.RESTR.CAVITY>
0

>  <SCORE.RESTR.norm>
0

>  <SCORE.SYSTEM>
-20.8868

>  <SCORE.SYSTEM.CONST>
0

>  <SCORE.SYSTEM.DIHEDRAL>
3.09555

>  <SCORE.SYSTEM.POLAR>
-6.25778

>  <SCORE.SYSTEM.VDW>
-1.15809

>  <SCORE.SYSTEM.norm>
-0.720233

>  <SCORE.heavy>
29

>  <SCORE.norm>
-1.44301

$$$$
4PP.pdb
  rDOCK(R)          3D
libRbt.so/2013.1/901 2013/11/27
 34 36  0  0  0  0  0  0  0  0999 V2000
    4.8833    0.4501   22.8034 C   0  0  0  0  0  0
    5.5609    0.3753   23.8378 O   0  0  0  0  0  0
    3.9685   -0.5238   22.5067 O   0  0  0  0  0  0
    8.0291    9.2766   24.7590 N   0  0  0  0  0  0
    7.4645    8.3960   25.7026 C   0  0  0  0  0  0
    6.8824    7.1875   25.2675 C   0  0  0  0  0  0
    6.8632    6.8614   23.8958 C   0  0  0  0  0  0
    7.4367    7.7534   22.9465 C   0  0  0  0  0  0
    8.0154    8.9537   23.3832 C   0  0  0  0  0  0
    6.2366    5.5770   23.4849 N   0  0  0  0  0  0
    5.0787    1.6583   21.8655 C   0  0  0  0  0  0
    5.8951    2.7576   22.5499 C   0  0  0  0  0  0
    5.8075    4.0030   21.6732 C   0  0  0  0  0  0
    6.7625    5.0685   22.1994 C   0  0  0  0  0  0
   13.0017   -2.0996   17.0222 N   0  0  0  0  0  0
   10.8747   -2.9321   16.9362 N   0  0  0  0  0  0
   11.7278   -2.0210   17.3595 C   0  0  0  0  0  0
    6.9344    0.3318   18.1190 C   0  0  0  0  0  0
    5.5262    0.5106   18.2029 C   0  0  0  0  0  0
    4.9390    0.9413   19.4207 C   0  0  0  0  0  0
    5.7525    1.1952   20.5637 C   0  0  0  0  0  0
    7.1722    1.0151   20.4861 C   0  0  0  0  0  0
    7.7675    0.5831   19.2616 C   0  0  0  0  0  0
   11.6174    1.0510   19.7436 C   0  0  0  0  0  0
   10.2112    1.2539   19.8603 C   0  0  0  0  0  0
    9.3062    0.3919   19.1622 C   0  0  0  0  0  0
    9.8207   -0.6588   18.3583 C   0  0  0  0  0  0
   11.2173   -0.8657   18.2414 C   0  0  0  0  0  0
   12.1207   -0.0104   18.9328 C   0  0  0  0  0  0
    3.4624   -0.4673   21.7202 H   0  0  0  0  0  0
    5.5456    5.1146   24.0122 H   0  0  0  0  0  0
   13.3165   -2.8425   16.4581 H   0  0  0  0  0  0
   11.1881   -3.6755   16.3720 H   0  0  0  0  0  0
    9.9240   -2.8694   17.1842 H   0  0  0  0  0  0
  1  2  2  0  0  0
  1  3  1  0  0  0
  1 11  1  0  0  0
  3 30  1  0  0  0
  4  5  2  0  0  0
  4  9  1  0  0  0
  5  6  1  0  0  0
  6  7  2  0  0  0
  7  8  1  0  0  0
  7 10  1  0  0  0
  8  9  2  0  0  0
 10 14  1  0  0  0
 10 31  1  0  0  0
 11 12  1  0  0  0
 11 21  1  0  0  0
 12 13  1  0  0  0
 13 14  1  0  0  0
 15 17  2  0  0  0
 15 32  1  0  0  0
 16 17  1  0  0  0
 16 33  1  0  0  0
 16 34  1  0  0  0
 17 28  1  0  0  0
 18 19  2  0  0  0
 18 23  1  0  0  0
 19 20  1  0  0  0
 20 21  2  0  0  0
 21 22  1  0  0  0
 22 23  2  0  0  0
 23 26  1  0  0  0
 24 25  2  0  0  0
 24 29  1  0  0  0
 25 26  1  0  0  0
 26 27  2  0  0  0
 27 28  1  0  0  0
 28 29  2  0  0  0
M  END
>  <CHROM.0>
127.71629987,-52.36795402,19.77357361,-171.79055189,63.02258396,-64.08745047
-108.37253688,-41.99117149,61.55013534,-160.42125775,-172.97845089,144.02406707

>  <CHROM.1>
-179.53358982,-12.78513692,-155.14454894,-163.92040903,-169.10290110,97.96300199
-171.91536510,-70.02220654,167.29712120,144.16002800,7.78479065,2.25310746
21.01323886,1.93043188,0.35327015,0.50436481

>  <FORMUL>
      4PP    C23 H24 N4 O2

>  <HET>
 4PP  C 500      29

>  <HETNAM>
     4PP (2S)-(3'-AMIDINO-3-BIPHENYL)-5-(4-PYRIDYLAMINO)PENTANOI
   2 4PP C ACID

>  <Name>
4PP.pdb

>  <RI>
0

>  <Rbt.Current_Directory>
/home/malgorzata/Desktop/rDOCK_IFD/Wyniki/7_factor_Xa/IFD

>  <Rbt.Executable>
rbdock ($Id: //depot/dev/client3/rdock/2013.1/src/exe/rbdock.cxx#4 $)

>  <Rbt.Library>
libRbt.so (2013.1, Build901 2013/11/27)

>  <Rbt.Parameter_File>
/home/malgorzata/Desktop/rDock_2013.1_src/data/scripts/dock.prm

>  <Rbt.Receptor>
cavity.prm

>  <SCORE>
-42.8056

>  <SCORE.INTER>
-18.9393

>  <SCORE.INTER.CONST>
1

>  <SCORE.INTER.POLAR>
0

>  <SCORE.INTER.REPUL>
0.00203173

>  <SCORE.INTER.ROT>
9

>  <SCORE.INTER.VDW>
-33.3494

>  <SCORE.INTER.norm>
-0.653078

>  <SCORE.INTRA>
-5.20117

>  <SCORE.INTRA.DIHEDRAL>
-10.4886

>  <SCORE.INTRA.DIHEDRAL.0>
20.1331

>  <SCORE.INTRA.POLAR>
0

>  <SCORE.INTRA.POLAR.0>
0

>  <SCORE.INTRA.REPUL>
0

>  <SCORE.INTRA.REPUL.0>
0

>  <SCORE.INTRA.VDW>
0.0431238

>  <SCORE.INTRA.VDW.0>
0.0644272

>  <SCORE.INTRA.norm>
-0.179351

>  <SCORE.RESTR>
0

>  <SCORE.RESTR.CAVITY>
0

>  <SCORE.RESTR.norm>
0

>  <SCORE.SYSTEM>
-18.6651

>  <SCORE.SYSTEM.CONST>
0

>  <SCORE.SYSTEM.DIHEDRAL>
9.98547

>  <SCORE.SYSTEM.POLAR>
-6.88291

>  <SCORE.SYSTEM.REPUL>
0.0300756

>  <SCORE.SYSTEM.VDW>
-0.406346

>  <SCORE.SYSTEM.norm>
-0.643625

>  <SCORE.heavy>
29

>  <SCORE.norm>
-1.47605

$$$$
4PP.pdb
  rDOCK(R)          3D
libRbt.so/2013.1/901 2013/11/27
 34 36  0  0  0  0  0  0  0  0999 V2000
    4.0526    1.2153   18.2209 C   0  0  0  0  0  0
    5.0001    1.1848   17.4234 O   0  0  0  0  0  0
    2.8023    0.8279   17.8211 O   0  0  0  0  0  0
    2.8662    0.0209   27.1130 N   0  0  0  0  0  0
    3.9720    0.6014   26.4612 C   0  0  0  0  0  0
    3.8209    1.1179   25.1577 C   0  0  0  0  0  0
    2.5709    1.0531   24.5082 C   0  0  0  0  0  0
    1.4563    0.4674   25.1717 C   0  0  0  0  0  0
    1.6104   -0.0442   26.4681 C   0  0  0  0  0  0
    2.4609    1.6091   23.1335 N   0  0  0  0  0  0
    4.3061    1.6842   19.6678 C   0  0  0  0  0  0
    3.9260    0.5935   20.6725 C   0  0  0  0  0  0
    4.5348    0.9801   22.0168 C   0  0  0  0  0  0
    3.7459    2.1349   22.6237 C   0  0  0  0  0  0
   10.2742   -3.5245   16.9679 N   0  0  0  0  0  0
    9.4575   -1.8318   15.6671 N   0  0  0  0  0  0
    9.9695   -2.2501   16.8073 C   0  0  0  0  0  0
    8.4876    2.9231   20.1373 C   0  0  0  0  0  0
    7.4298    3.8187   20.4549 C   0  0  0  0  0  0
    6.0814    3.4046   20.2997 C   0  0  0  0  0  0
    5.7793    2.0947   19.8248 C   0  0  0  0  0  0
    6.8410    1.1880   19.5012 C   0  0  0  0  0  0
    8.1996    1.6004   19.6575 C   0  0  0  0  0  0
   11.6463   -0.2415   19.6860 C   0  0  0  0  0  0
   10.6026    0.6677   20.0267 C   0  0  0  0  0  0
    9.3596    0.6241   19.3178 C   0  0  0  0  0  0
    9.1795   -0.3270   18.2796 C   0  0  0  0  0  0
   10.2131   -1.2342   17.9393 C   0  0  0  0  0  0
   11.4508   -1.1936   18.6407 C   0  0  0  0  0  0
    2.0892    0.8472   18.4286 H   0  0  0  0  0  0
    1.6223    1.6255   22.6179 H   0  0  0  0  0  0
   10.1142   -4.1648   16.2374 H   0  0  0  0  0  0
    9.2969   -2.4710   14.9357 H   0  0  0  0  0  0
    9.2355   -0.8803   15.5468 H   0  0  0  0  0  0
  1  2  2  0  0  0
  1  3  1  0  0  0
  1 11  1  0  0  0
  3 30  1  0  0  0
  4  5  2  0  0  0
  4  9  1  0  0  0
  5  6  1  0  0  0
  6  7  2  0  0  0
  7  8  1  0  0  0
  7 10  1  0  0  0
  8  9  2  0  0  0
 10 14  1  0  0  0
 10 31  1  0  0  0
 11 12  1  0  0  0
 11 21  1  0  0  0
 12 13  1  0  0  0
 13 14  1  0  0  0
 15 17  2  0  0  0
 15 32  1  0  0  0
 16 17  1  0  0  0
 16 33  1  0  0  0
 16 34  1  0  0  0
 17 28  1  0  0  0
 18 19  2  0  0  0
 18 23  1  0  0  0
 19 20  1  0  0  0
 20 21  2  0  0  0
 21 22  1  0  0  0
 22 23  2  0  0  0
 23 26  1  0  0  0
 24 25  2  0  0  0
 24 29  1  0  0  0
 25 26  1  0  0  0
 26 27  2  0  0  0
 27 28  1  0  0  0
 28 29  2  0  0  0
M  END
>  <CHROM.0>
-100.66081838,179.43135454,-0.18284299,38.47965660,-66.88147075,-55.97221337
-175.59979405,56.09224868,-176.58007824,-170.76729777,-99.42222608,127.63329142

>  <CHROM.1>
179.61986382,-121.04539278,1.60723128,84.97953024,165.48182102,124.31413153
73.82524222,74.42354973,-132.70263240,31.56594089,6.21179918,0.63672587,20.62165847
0.73289988,0.31677826,-1.48849377

>  <FORMUL>
      4PP    C23 H24 N4 O2

>  <HET>
 4PP  C 500      29

>  <HETNAM>
     4PP (2S)-(3'-AMIDINO-3-BIPHENYL)-5-(4-PYRIDYLAMINO)PENTANOI
   2 4PP C ACID

>  <Name>
4PP.pdb

>  <RI>
0

>  <Rbt.Current_Directory>
/home/malgorzata/Desktop/rDOCK_IFD/Wyniki/7_factor_Xa/IFD

>  <Rbt.Executable>
rbdock ($Id: //depot/dev/client3/rdock/2013.1/src/exe/rbdock.cxx#4 $)

>  <Rbt.Library>
libRbt.so (2013.1, Build901 2013/11/27)

>  <Rbt.Parameter_File>
/home/malgorzata/Desktop/rDock_2013.1_src/data/scripts/dock.prm

>  <Rbt.Receptor>
cavity.prm

>  <SCORE>
-26.6889

>  <SCORE.INTER>
-11.9143

>  <SCORE.INTER.CONST>
1

>  <SCORE.INTER.POLAR>
-1.17138

>  <SCORE.INTER.REPUL>
0

>  <SCORE.INTER.ROT>
9

>  <SCORE.INTER.VDW>
-22.3316

>  <SCORE.INTER.norm>
-0.410837

>  <SCORE.INTRA>
-0.742209

>  <SCORE.INTRA.DIHEDRAL>
-5.6976

>  <SCORE.INTRA.DIHEDRAL.0>
20.1331

>  <SCORE.INTRA.POLAR>
0

>  <SCORE.INTRA.POLAR.0>
0

>  <SCORE.INTRA.REPUL>
0

>  <SCORE.INTRA.REPUL.0>
0

>  <SCORE.INTRA.VDW>
2.10659

>  <SCORE.INTRA.VDW.0>
0.0644272

>  <SCORE.INTRA.norm>
-0.0255934

>  <SCORE.RESTR>
0.0117213

>  <SCORE.RESTR.CAVITY>
0.0117213

>  <SCORE.RESTR.norm>
0.000404184

>  <SCORE.SYSTEM>
-14.0442

>  <SCORE.SYSTEM.CONST>
0

>  <SCORE.SYSTEM.DIHEDRAL>
4.21868

>  <SCORE.SYSTEM.POLAR>
-5.66915

>  <SCORE.SYSTEM.REPUL>
0.0488372

>  <SCORE.SYSTEM.VDW>
2.87742

>  <SCORE.SYSTEM.norm>
-0.484281

>  <SCORE.heavy>
29

>  <SCORE.norm>
-0.920308

$$$$
