DPC.pdb
  rDOCK(R)          3D
libRbt.so/2013.1/901 2013/11/27
 32 33  0  0  0  0  0  0  0  0999 V2000
   -5.5266   62.5612  -14.0396 C   0  0  0  0  0  0
   -6.0652   61.5839  -14.5462 O   0  0  0  0  0  0
   -5.9109   63.6854  -14.3324 O   0  0  0  0  0  0
   -4.5095   62.3521  -12.9936 C   0  0  0  0  0  0
   -3.7548   63.3652  -12.5550 C   0  0  0  0  0  0
   -2.7575   63.1567  -11.4478 C   0  0  0  0  0  0
   -2.4582   61.6777  -11.2178 C   0  0  0  0  0  0
   -1.8533   61.5088   -9.9017 N   0  0  0  0  0  0
   -2.3902   61.9481   -8.7531 C   0  0  0  0  0  0
   -3.4340   62.5779   -8.7407 O   0  0  0  0  0  0
   -1.6449   61.5754   -7.4584 C   0  0  0  0  0  0
   -3.7658   60.8910  -11.2699 C   0  0  0  0  0  0
   -4.4409   61.1254  -12.4766 O   0  0  0  0  0  0
   -3.4665   59.4090  -11.2879 C   0  0  0  0  0  0
   -3.8941   58.9337  -10.5583 O   0  0  0  0  0  0
   -2.8354   58.8709  -12.3227 N   0  0  0  0  0  0
   -2.6685   57.4008  -12.2954 C   0  0  0  0  0  0
   -1.7836   56.9329  -11.1359 C   0  0  0  0  0  0
   -1.3190   55.5174  -11.4154 C   0  0  0  0  0  0
   -0.1759   55.2849  -12.2125 C   0  0  0  0  0  0
   -2.0334   54.4189  -10.9157 C   0  0  0  0  0  0
    0.2209   53.9746  -12.5328 C   0  0  0  0  0  0
   -1.6394   53.1151  -11.2327 C   0  0  0  0  0  0
   -0.5233   52.8835  -12.0481 C   0  0  0  0  0  0
   -2.2506   59.6422  -13.4173 C   0  0  0  0  0  0
   -0.7131   59.5945  -13.4144 C   0  0  0  0  0  0
   -0.0334   60.3500  -14.5716 C   0  0  0  0  0  0
   -1.5435   63.8573  -11.7717 N   0  0  0  0  0  0
   -5.5252   64.4341  -13.9216 H   0  0  0  0  0  0
   -0.9895   61.0390   -9.8524 H   0  0  0  0  0  0
   -0.8476   63.6850  -11.0461 H   0  0  0  0  0  0
   -1.7335   64.8578  -11.8299 H   0  0  0  0  0  0
  1  2  2  0  0  0
  1  3  1  0  0  0
  1  4  1  0  0  0
  3 29  1  0  0  0
  4  5  2  0  0  0
  4 13  1  0  0  0
  5  6  1  0  0  0
  6  7  1  0  0  0
  6 28  1  0  0  0
  7  8  1  0  0  0
  7 12  1  0  0  0
  8  9  1  0  0  0
  8 30  1  0  0  0
  9 10  2  0  0  0
  9 11  1  0  0  0
 12 13  1  0  0  0
 12 14  1  0  0  0
 14 15  2  0  0  0
 14 16  1  0  0  0
 16 17  1  0  0  0
 16 25  1  0  0  0
 17 18  1  0  0  0
 18 19  1  0  0  0
 19 20  2  0  0  0
 19 21  1  0  0  0
 20 22  1  0  0  0
 21 23  2  0  0  0
 22 24  2  0  0  0
 23 24  1  0  0  0
 25 26  1  0  0  0
 26 27  1  0  0  0
 28 31  1  0  0  0
 28 32  1  0  0  0
M  END
>  <CHROM.0>
-120.28030038,175.27806945,-61.10014711,-179.41855839,163.28165452,162.46253456
115.92928964,140.57566112,-164.24404599,-167.19904183,-143.70987167

>  <CHROM.1>
177.54752422,169.91893343,-177.39385532,54.21792822,123.12725655,-64.17084599
110.86541494,-162.81194574,84.90152908,178.06362339,-2.65042324,59.70160587
-11.82435277,2.34383159,-1.06819959,0.66346125

>  <FORMUL>
      DPC    C20 H27 N3 O5

>  <HET>
 DPC  A 466      28

>  <HETNAM>
     DPC 5-ACETYLAMINO-4-AMINO-6-(PHENETHYL-PROPYL-CARBAMOYL)-5,
   2 DPC 6-DIHYDRO-4H-PYRAN-2-CARBOXYLIC ACID

>  <Name>
DPC.pdb

>  <RI>
0

>  <Rbt.Current_Directory>
/home/malgorzata/Desktop/rDOCK_IFD/Wyniki/11a_neuraminidase/IFD

>  <Rbt.Executable>
rbdock ($Id: //depot/dev/client3/rdock/2013.1/src/exe/rbdock.cxx#4 $)

>  <Rbt.Library>
libRbt.so (2013.1, Build901 2013/11/27)

>  <Rbt.Parameter_File>
/home/malgorzata/Desktop/rDock_2013.1_src/data/scripts/hard_docking.prm

>  <Rbt.Receptor>
cavity.prm

>  <SCORE>
-3.35536

>  <SCORE.INTER>
1.65303

>  <SCORE.INTER.CONST>
1

>  <SCORE.INTER.POLAR>
-0.675041

>  <SCORE.INTER.REPUL>
0

>  <SCORE.INTER.ROT>
9

>  <SCORE.INTER.VDW>
-10.4518

>  <SCORE.INTER.norm>
0.0590367

>  <SCORE.INTRA>
0.004356

>  <SCORE.INTRA.DIHEDRAL>
-0.727853

>  <SCORE.INTRA.DIHEDRAL.0>
7.68839

>  <SCORE.INTRA.POLAR>
0

>  <SCORE.INTRA.POLAR.0>
0

>  <SCORE.INTRA.REPUL>
0

>  <SCORE.INTRA.REPUL.0>
0

>  <SCORE.INTRA.VDW>
0.368283

>  <SCORE.INTRA.VDW.0>
-2.73227

>  <SCORE.INTRA.norm>
0.000155571

>  <SCORE.RESTR>
0.875528

>  <SCORE.RESTR.CAVITY>
0.875528

>  <SCORE.RESTR.norm>
0.0312689

>  <SCORE.SYSTEM>
-5.88828

>  <SCORE.SYSTEM.CONST>
0

>  <SCORE.SYSTEM.DIHEDRAL>
3.18551

>  <SCORE.SYSTEM.POLAR>
-0.414986

>  <SCORE.SYSTEM.REPUL>
0.106232

>  <SCORE.SYSTEM.VDW>
-6.60124

>  <SCORE.SYSTEM.norm>
-0.210296

>  <SCORE.heavy>
28

>  <SCORE.norm>
-0.119834

$$$$
DPC.pdb
  rDOCK(R)          3D
libRbt.so/2013.1/901 2013/11/27
 32 33  0  0  0  0  0  0  0  0999 V2000
    0.4232   54.5891  -11.5730 C   0  0  0  0  0  0
    0.4036   54.4593  -10.3545 O   0  0  0  0  0  0
    1.1255   53.8508  -12.2505 O   0  0  0  0  0  0
   -0.4975   55.5530  -12.2020 C   0  0  0  0  0  0
   -0.7174   55.5349  -13.5209 C   0  0  0  0  0  0
   -1.7009   56.4850  -14.1487 C   0  0  0  0  0  0
   -2.0539   57.6417  -13.2175 C   0  0  0  0  0  0
   -3.2901   58.2662  -13.6740 N   0  0  0  0  0  0
   -4.4504   57.6174  -13.8570 C   0  0  0  0  0  0
   -4.5370   56.4129  -13.6896 O   0  0  0  0  0  0
   -5.6671   58.4789  -14.2417 C   0  0  0  0  0  0
   -2.2617   57.0987  -11.8055 C   0  0  0  0  0  0
   -1.1351   56.3824  -11.3760 O   0  0  0  0  0  0
   -2.3707   58.2489  -10.8301 C   0  0  0  0  0  0
   -2.2495   59.1118  -11.2566 O   0  0  0  0  0  0
   -2.7723   58.0292   -9.5855 N   0  0  0  0  0  0
   -2.9380   59.2253   -8.7301 C   0  0  0  0  0  0
   -1.6105   59.7130   -8.1413 C   0  0  0  0  0  0
   -1.2107   58.7911   -7.0065 C   0  0  0  0  0  0
   -0.5842   57.5541   -7.2779 C   0  0  0  0  0  0
   -1.4850   59.1358   -5.6752 C   0  0  0  0  0  0
   -0.2730   56.6636   -6.2353 C   0  0  0  0  0  0
   -1.1752   58.2515   -4.6371 C   0  0  0  0  0  0
   -0.5813   57.0112   -4.9073 C   0  0  0  0  0  0
   -2.9812   56.7005   -9.0145 C   0  0  0  0  0  0
   -4.4717   56.3385   -8.8977 C   0  0  0  0  0  0
   -5.2163   56.1936  -10.2381 C   0  0  0  0  0  0
   -1.1446   56.9947  -15.3736 N   0  0  0  0  0  0
    1.1069   53.9144  -13.1852 H   0  0  0  0  0  0
   -3.2722   59.2325  -13.8612 H   0  0  0  0  0  0
   -0.9606   56.2204  -16.0116 H   0  0  0  0  0  0
   -0.2727   57.4846  -15.1730 H   0  0  0  0  0  0
  1  2  2  0  0  0
  1  3  1  0  0  0
  1  4  1  0  0  0
  3 29  1  0  0  0
  4  5  2  0  0  0
  4 13  1  0  0  0
  5  6  1  0  0  0
  6  7  1  0  0  0
  6 28  1  0  0  0
  7  8  1  0  0  0
  7 12  1  0  0  0
  8  9  1  0  0  0
  8 30  1  0  0  0
  9 10  2  0  0  0
  9 11  1  0  0  0
 12 13  1  0  0  0
 12 14  1  0  0  0
 14 15  2  0  0  0
 14 16  1  0  0  0
 16 17  1  0  0  0
 16 25  1  0  0  0
 17 18  1  0  0  0
 18 19  1  0  0  0
 19 20  2  0  0  0
 19 21  1  0  0  0
 20 22  1  0  0  0
 21 23  2  0  0  0
 22 24  2  0  0  0
 23 24  1  0  0  0
 25 26  1  0  0  0
 26 27  1  0  0  0
 28 31  1  0  0  0
 28 32  1  0  0  0
M  END
>  <CHROM.0>
-124.44140764,-67.35206767,-61.10014711,-61.83250348,157.27369123,-105.87497082
122.09902793,-130.72593245,-54.54967414,-169.64465341,-0.64520416

>  <CHROM.1>
176.54734894,-165.84003804,60.05058191,55.75242408,-2.70187136,-81.41617002
-104.32781662,-75.98241818,80.73352471,65.44427773,-1.99514045,57.12537154
-10.59152333,-1.77869017,-0.61803863,1.29534503

>  <FORMUL>
      DPC    C20 H27 N3 O5

>  <HET>
 DPC  A 466      28

>  <HETNAM>
     DPC 5-ACETYLAMINO-4-AMINO-6-(PHENETHYL-PROPYL-CARBAMOYL)-5,
   2 DPC 6-DIHYDRO-4H-PYRAN-2-CARBOXYLIC ACID

>  <Name>
DPC.pdb

>  <RI>
0

>  <Rbt.Current_Directory>
/home/malgorzata/Desktop/rDOCK_IFD/Wyniki/11a_neuraminidase/IFD

>  <Rbt.Executable>
rbdock ($Id: //depot/dev/client3/rdock/2013.1/src/exe/rbdock.cxx#4 $)

>  <Rbt.Library>
libRbt.so (2013.1, Build901 2013/11/27)

>  <Rbt.Parameter_File>
/home/malgorzata/Desktop/rDock_2013.1_src/data/scripts/hard_docking.prm

>  <Rbt.Receptor>
cavity.prm

>  <SCORE>
-10.8967

>  <SCORE.INTER>
-9.41668

>  <SCORE.INTER.CONST>
1

>  <SCORE.INTER.POLAR>
0

>  <SCORE.INTER.REPUL>
0

>  <SCORE.INTER.ROT>
9

>  <SCORE.INTER.VDW>
-23.8167

>  <SCORE.INTER.norm>
-0.33631

>  <SCORE.INTRA>
1.11885

>  <SCORE.INTRA.DIHEDRAL>
-1.06807

>  <SCORE.INTRA.DIHEDRAL.0>
7.68839

>  <SCORE.INTRA.POLAR>
0

>  <SCORE.INTRA.POLAR.0>
0

>  <SCORE.INTRA.REPUL>
0

>  <SCORE.INTRA.REPUL.0>
0

>  <SCORE.INTRA.VDW>
1.65288

>  <SCORE.INTRA.VDW.0>
-2.73227

>  <SCORE.INTRA.norm>
0.0399588

>  <SCORE.RESTR>
0

>  <SCORE.RESTR.CAVITY>
0

>  <SCORE.RESTR.norm>
0

>  <SCORE.SYSTEM>
-2.59884

>  <SCORE.SYSTEM.CONST>
0

>  <SCORE.SYSTEM.DIHEDRAL>
3.27875

>  <SCORE.SYSTEM.POLAR>
-0.405829

>  <SCORE.SYSTEM.REPUL>
0.295725

>  <SCORE.SYSTEM.VDW>
-4.33702

>  <SCORE.SYSTEM.norm>
-0.0928157

>  <SCORE.heavy>
28

>  <SCORE.norm>
-0.389167

$$$$
DPC.pdb
  rDOCK(R)          3D
libRbt.so/2013.1/901 2013/11/27
 32 33  0  0  0  0  0  0  0  0999 V2000
   -0.7928   57.7072   -5.1827 C   0  0  0  0  0  0
   -0.0140   56.8485   -5.5804 O   0  0  0  0  0  0
   -0.5997   58.2479   -4.1022 O   0  0  0  0  0  0
   -1.8763   58.1554   -6.0759 C   0  0  0  0  0  0
   -2.9348   58.8168   -5.5961 C   0  0  0  0  0  0
   -4.0096   59.3204   -6.5207 C   0  0  0  0  0  0
   -3.9389   58.6593   -7.8947 C   0  0  0  0  0  0
   -4.6861   59.4640   -8.8543 N   0  0  0  0  0  0
   -4.3502   60.7066   -9.2333 C   0  0  0  0  0  0
   -3.3892   61.2797   -8.7492 O   0  0  0  0  0  0
   -5.2116   61.3453  -10.3383 C   0  0  0  0  0  0
   -2.4792   58.5844   -8.3368 C   0  0  0  0  0  0
   -1.7009   57.9219   -7.3765 O   0  0  0  0  0  0
   -2.3667   57.7212   -9.5731 C   0  0  0  0  0  0
   -2.0354   58.2122  -10.3413 O   0  0  0  0  0  0
   -2.5437   56.4098   -9.4865 N   0  0  0  0  0  0
   -2.3229   55.6360  -10.7284 C   0  0  0  0  0  0
   -3.6257   55.3577  -11.4848 C   0  0  0  0  0  0
   -4.0519   56.6210  -12.2060 C   0  0  0  0  0  0
   -3.4867   56.9547  -13.4572 C   0  0  0  0  0  0
   -4.9870   57.4923  -11.6291 C   0  0  0  0  0  0
   -3.8260   58.1586  -14.0994 C   0  0  0  0  0  0
   -5.3261   58.6897  -12.2671 C   0  0  0  0  0  0
   -4.7436   59.0363  -13.4937 C   0  0  0  0  0  0
   -3.0032   55.7228   -8.2816 C   0  0  0  0  0  0
   -2.1069   54.5302   -7.9067 C   0  0  0  0  0  0
   -0.5970   54.8319   -7.8745 C   0  0  0  0  0  0
   -5.2953   59.0737   -5.9243 N   0  0  0  0  0  0
    0.1110   57.9687   -3.5591 H   0  0  0  0  0  0
   -5.4944   59.0672   -9.2524 H   0  0  0  0  0  0
   -6.0304   59.3717   -6.5655 H   0  0  0  0  0  0
   -5.3718   59.5975   -5.0523 H   0  0  0  0  0  0
  1  2  2  0  0  0
  1  3  1  0  0  0
  1  4  1  0  0  0
  3 29  1  0  0  0
  4  5  2  0  0  0
  4 13  1  0  0  0
  5  6  1  0  0  0
  6  7  1  0  0  0
  6 28  1  0  0  0
  7  8  1  0  0  0
  7 12  1  0  0  0
  8  9  1  0  0  0
  8 30  1  0  0  0
  9 10  2  0  0  0
  9 11  1  0  0  0
 12 13  1  0  0  0
 12 14  1  0  0  0
 14 15  2  0  0  0
 14 16  1  0  0  0
 16 17  1  0  0  0
 16 25  1  0  0  0
 17 18  1  0  0  0
 18 19  1  0  0  0
 19 20  2  0  0  0
 19 21  1  0  0  0
 20 22  1  0  0  0
 21 23  2  0  0  0
 22 24  2  0  0  0
 23 24  1  0  0  0
 25 26  1  0  0  0
 26 27  1  0  0  0
 28 31  1  0  0  0
 28 32  1  0  0  0
M  END
>  <CHROM.0>
102.14782702,176.62791343,-61.10014711,66.27600870,-91.19787450,156.39198669
-67.34499533,33.21495564,82.06549780,-35.56570212,-143.05038368

>  <CHROM.1>
-3.72219276,162.85894254,-177.28856764,65.45239021,117.53103157,-96.35158747
-129.87096176,76.64671036,82.33340211,49.31874212,-3.04330081,57.91931517
-8.92962747,-0.86254563,0.95751720,-2.12566939

>  <FORMUL>
      DPC    C20 H27 N3 O5

>  <HET>
 DPC  A 466      28

>  <HETNAM>
     DPC 5-ACETYLAMINO-4-AMINO-6-(PHENETHYL-PROPYL-CARBAMOYL)-5,
   2 DPC 6-DIHYDRO-4H-PYRAN-2-CARBOXYLIC ACID

>  <Name>
DPC.pdb

>  <RI>
0

>  <Rbt.Current_Directory>
/home/malgorzata/Desktop/rDOCK_IFD/Wyniki/11a_neuraminidase/IFD

>  <Rbt.Executable>
rbdock ($Id: //depot/dev/client3/rdock/2013.1/src/exe/rbdock.cxx#4 $)

>  <Rbt.Library>
libRbt.so (2013.1, Build901 2013/11/27)

>  <Rbt.Parameter_File>
/home/malgorzata/Desktop/rDock_2013.1_src/data/scripts/hard_docking.prm

>  <Rbt.Receptor>
cavity.prm

>  <SCORE>
-10.5308

>  <SCORE.INTER>
-7.74759

>  <SCORE.INTER.CONST>
1

>  <SCORE.INTER.POLAR>
-1.69035

>  <SCORE.INTER.REPUL>
0

>  <SCORE.INTER.ROT>
9

>  <SCORE.INTER.VDW>
-16.4004

>  <SCORE.INTER.norm>
-0.2767

>  <SCORE.INTRA>
-1.63437

>  <SCORE.INTRA.DIHEDRAL>
0.406882

>  <SCORE.INTRA.DIHEDRAL.0>
7.68839

>  <SCORE.INTRA.POLAR>
0

>  <SCORE.INTRA.POLAR.0>
0

>  <SCORE.INTRA.REPUL>
0

>  <SCORE.INTRA.REPUL.0>
0

>  <SCORE.INTRA.VDW>
-1.83781

>  <SCORE.INTRA.VDW.0>
-2.73227

>  <SCORE.INTRA.norm>
-0.0583704

>  <SCORE.RESTR>
0

>  <SCORE.RESTR.CAVITY>
0

>  <SCORE.RESTR.norm>
0

>  <SCORE.SYSTEM>
-1.14886

>  <SCORE.SYSTEM.CONST>
0

>  <SCORE.SYSTEM.DIHEDRAL>
4.67228

>  <SCORE.SYSTEM.POLAR>
-0.078936

>  <SCORE.SYSTEM.REPUL>
0.0584101

>  <SCORE.SYSTEM.VDW>
-3.50866

>  <SCORE.SYSTEM.norm>
-0.0410306

>  <SCORE.heavy>
28

>  <SCORE.norm>
-0.376101

$$$$
DPC.pdb
  rDOCK(R)          3D
libRbt.so/2013.1/901 2013/11/27
 32 33  0  0  0  0  0  0  0  0999 V2000
   -0.4175   61.0041   -6.1005 C   0  0  0  0  0  0
   -0.4426   62.0267   -6.7756 O   0  0  0  0  0  0
    0.0470   61.0355   -4.9689 O   0  0  0  0  0  0
   -1.0629   59.7875   -6.6256 C   0  0  0  0  0  0
   -1.1599   58.6826   -5.8786 C   0  0  0  0  0  0
   -1.8694   57.4626   -6.4002 C   0  0  0  0  0  0
   -2.0654   57.5173   -7.9130 C   0  0  0  0  0  0
   -3.1029   56.5674   -8.2979 N   0  0  0  0  0  0
   -2.8943   55.4686   -9.0392 C   0  0  0  0  0  0
   -1.7926   55.2083   -9.4918 O   0  0  0  0  0  0
   -4.1037   54.5384   -9.2459 C   0  0  0  0  0  0
   -2.5073   58.9247   -8.3073 C   0  0  0  0  0  0
   -1.5929   59.8823   -7.8450 O   0  0  0  0  0  0
   -2.4708   59.0655   -9.8124 C   0  0  0  0  0  0
   -2.2436   58.2347  -10.2587 O   0  0  0  0  0  0
   -2.8950   60.1834  -10.3859 N   0  0  0  0  0  0
   -2.9091   60.1955  -11.8656 C   0  0  0  0  0  0
   -1.5879   60.6931  -12.4601 C   0  0  0  0  0  0
   -1.3172   59.9412  -13.7481 C   0  0  0  0  0  0
   -1.4455   60.5918  -14.9957 C   0  0  0  0  0  0
   -0.9680   58.5833  -13.7231 C   0  0  0  0  0  0
   -1.2633   59.8833  -16.1964 C   0  0  0  0  0  0
   -0.7855   57.8775  -14.9165 C   0  0  0  0  0  0
   -0.9420   58.5142  -16.1551 C   0  0  0  0  0  0
   -3.2671   61.3908   -9.6518 C   0  0  0  0  0  0
   -4.6193   61.2483   -8.9325 C   0  0  0  0  0  0
   -5.0328   62.4570   -8.0723 C   0  0  0  0  0  0
   -1.1116   56.2920   -6.0467 N   0  0  0  0  0  0
   -0.0057   60.2781   -4.4197 H   0  0  0  0  0  0
   -4.0216   56.7450   -7.9919 H   0  0  0  0  0  0
   -0.2246   56.2963   -6.5503 H   0  0  0  0  0  0
   -1.6404   55.4563   -6.2967 H   0  0  0  0  0  0
  1  2  2  0  0  0
  1  3  1  0  0  0
  1  4  1  0  0  0
  3 29  1  0  0  0
  4  5  2  0  0  0
  4 13  1  0  0  0
  5  6  1  0  0  0
  6  7  1  0  0  0
  6 28  1  0  0  0
  7  8  1  0  0  0
  7 12  1  0  0  0
  8  9  1  0  0  0
  8 30  1  0  0  0
  9 10  2  0  0  0
  9 11  1  0  0  0
 12 13  1  0  0  0
 12 14  1  0  0  0
 14 15  2  0  0  0
 14 16  1  0  0  0
 16 17  1  0  0  0
 16 25  1  0  0  0
 17 18  1  0  0  0
 18 19  1  0  0  0
 19 20  2  0  0  0
 19 21  1  0  0  0
 20 22  1  0  0  0
 21 23  2  0  0  0
 22 24  2  0  0  0
 23 24  1  0  0  0
 25 26  1  0  0  0
 26 27  1  0  0  0
 28 31  1  0  0  0
 28 32  1  0  0  0
M  END
>  <CHROM.0>
97.28988093,-67.40481323,-61.10014711,178.51636199,-161.81309318,163.94188439
99.81052366,32.56130836,134.48107016,-166.68778693,117.27504973

>  <CHROM.1>
174.15910331,-174.27343669,-66.79732999,-113.59366036,4.31050051,-89.76322859
-73.79846198,145.46812891,107.88525688,176.60659632,-2.00370774,59.03750931
-9.67574678,-1.81617242,-1.51636418,-1.79603409

>  <FORMUL>
      DPC    C20 H27 N3 O5

>  <HET>
 DPC  A 466      28

>  <HETNAM>
     DPC 5-ACETYLAMINO-4-AMINO-6-(PHENETHYL-PROPYL-CARBAMOYL)-5,
   2 DPC 6-DIHYDRO-4H-PYRAN-2-CARBOXYLIC ACID

>  <Name>
DPC.pdb

>  <RI>
0

>  <Rbt.Current_Directory>
/home/malgorzata/Desktop/rDOCK_IFD/Wyniki/11a_neuraminidase/IFD

>  <Rbt.Executable>
rbdock ($Id: //depot/dev/client3/rdock/2013.1/src/exe/rbdock.cxx#4 $)

>  <Rbt.Library>
libRbt.so (2013.1, Build901 2013/11/27)

>  <Rbt.Parameter_File>
/home/malgorzata/Desktop/rDock_2013.1_src/data/scripts/hard_docking.prm

>  <Rbt.Receptor>
cavity.prm

>  <SCORE>
-6.783

>  <SCORE.INTER>
-4.14552

>  <SCORE.INTER.CONST>
1

>  <SCORE.INTER.POLAR>
-0.958097

>  <SCORE.INTER.REPUL>
0

>  <SCORE.INTER.ROT>
9

>  <SCORE.INTER.VDW>
-15.288

>  <SCORE.INTER.norm>
-0.148054

>  <SCORE.INTRA>
2.63924

>  <SCORE.INTRA.DIHEDRAL>
1.10891

>  <SCORE.INTRA.DIHEDRAL.0>
7.68839

>  <SCORE.INTRA.POLAR>
0

>  <SCORE.INTRA.POLAR.0>
0

>  <SCORE.INTRA.REPUL>
0

>  <SCORE.INTRA.REPUL.0>
0

>  <SCORE.INTRA.VDW>
2.08479

>  <SCORE.INTRA.VDW.0>
-2.73227

>  <SCORE.INTRA.norm>
0.0942585

>  <SCORE.RESTR>
0

>  <SCORE.RESTR.CAVITY>
0

>  <SCORE.RESTR.norm>
0

>  <SCORE.SYSTEM>
-5.27672

>  <SCORE.SYSTEM.CONST>
0

>  <SCORE.SYSTEM.DIHEDRAL>
3.35999

>  <SCORE.SYSTEM.POLAR>
-0.498714

>  <SCORE.SYSTEM.REPUL>
0.0256025

>  <SCORE.SYSTEM.VDW>
-5.38911

>  <SCORE.SYSTEM.norm>
-0.188454

>  <SCORE.heavy>
28

>  <SCORE.norm>
-0.24225

$$$$
DPC.pdb
  rDOCK(R)          3D
libRbt.so/2013.1/901 2013/11/27
 32 33  0  0  0  0  0  0  0  0999 V2000
   -1.9916   60.0679   -3.8598 C   0  0  0  0  0  0
   -2.6390   59.4486   -3.0236 O   0  0  0  0  0  0
   -0.7891   59.8680   -3.9660 O   0  0  0  0  0  0
   -2.7033   60.9497   -4.8024 C   0  0  0  0  0  0
   -4.0341   61.0730   -4.7586 C   0  0  0  0  0  0
   -4.7490   62.0172   -5.6866 C   0  0  0  0  0  0
   -3.8673   62.4480   -6.8557 C   0  0  0  0  0  0
   -4.4236   63.6538   -7.4585 N   0  0  0  0  0  0
   -5.5088   63.6815   -8.2473 C   0  0  0  0  0  0
   -6.0941   62.6580   -8.5574 O   0  0  0  0  0  0
   -5.9969   65.0708   -8.6973 C   0  0  0  0  0  0
   -2.4644   62.7528   -6.3356 C   0  0  0  0  0  0
   -1.9412   61.6536   -5.6393 O   0  0  0  0  0  0
   -1.5207   62.9434   -7.5016 C   0  0  0  0  0  0
   -1.0923   63.8137   -7.4956 O   0  0  0  0  0  0
   -1.2277   61.9209   -8.2935 N   0  0  0  0  0  0
   -0.2249   62.1782   -9.3509 C   0  0  0  0  0  0
   -0.8307   62.8667  -10.5780 C   0  0  0  0  0  0
   -2.0603   62.0952  -11.0144 C   0  0  0  0  0  0
   -1.9361   60.9771  -11.8692 C   0  0  0  0  0  0
   -3.3395   62.4976  -10.6042 C   0  0  0  0  0  0
   -3.0768   60.2987  -12.3333 C   0  0  0  0  0  0
   -4.4749   61.8233  -11.0642 C   0  0  0  0  0  0
   -4.3547   60.7327  -11.9362 C   0  0  0  0  0  0
   -1.8803   60.6155   -8.2217 C   0  0  0  0  0  0
   -0.9811   59.5430   -7.5834 C   0  0  0  0  0  0
   -1.6458   58.1685   -7.3810 C   0  0  0  0  0  0
   -5.9395   61.3783   -6.1807 N   0  0  0  0  0  0
   -0.2930   60.3285   -4.6140 H   0  0  0  0  0  0
   -3.9709   64.5082   -7.2735 H   0  0  0  0  0  0
   -6.5207   61.0876   -5.3944 H   0  0  0  0  0  0
   -5.6821   60.5608   -6.7337 H   0  0  0  0  0  0
  1  2  2  0  0  0
  1  3  1  0  0  0
  1  4  1  0  0  0
  3 29  1  0  0  0
  4  5  2  0  0  0
  4 13  1  0  0  0
  5  6  1  0  0  0
  6  7  1  0  0  0
  6 28  1  0  0  0
  7  8  1  0  0  0
  7 12  1  0  0  0
  8  9  1  0  0  0
  8 30  1  0  0  0
  9 10  2  0  0  0
  9 11  1  0  0  0
 12 13  1  0  0  0
 12 14  1  0  0  0
 14 15  2  0  0  0
 14 16  1  0  0  0
 16 17  1  0  0  0
 16 25  1  0  0  0
 17 18  1  0  0  0
 18 19  1  0  0  0
 19 20  2  0  0  0
 19 21  1  0  0  0
 20 22  1  0  0  0
 21 23  2  0  0  0
 22 24  2  0  0  0
 23 24  1  0  0  0
 25 26  1  0  0  0
 26 27  1  0  0  0
 28 31  1  0  0  0
 28 32  1  0  0  0
M  END
>  <CHROM.0>
-83.41152425,175.05884153,-61.10014711,179.20470360,153.35103469,-118.36172499
-112.80907612,30.67631753,-158.10221844,74.83327355,107.66368686

>  <CHROM.1>
178.93632950,-0.36325500,56.46859654,-75.19276754,121.77300021,-81.33650876
-105.51123850,-50.53426725,-85.15209207,175.63526990,-2.91619115,61.67410727
-7.75211567,-1.40240473,0.55909618,-1.39997431

>  <FORMUL>
      DPC    C20 H27 N3 O5

>  <HET>
 DPC  A 466      28

>  <HETNAM>
     DPC 5-ACETYLAMINO-4-AMINO-6-(PHENETHYL-PROPYL-CARBAMOYL)-5,
   2 DPC 6-DIHYDRO-4H-PYRAN-2-CARBOXYLIC ACID

>  <Name>
DPC.pdb

>  <RI>
0

>  <Rbt.Current_Directory>
/home/malgorzata/Desktop/rDOCK_IFD/Wyniki/11a_neuraminidase/IFD

>  <Rbt.Executable>
rbdock ($Id: //depot/dev/client3/rdock/2013.1/src/exe/rbdock.cxx#4 $)

>  <Rbt.Library>
libRbt.so (2013.1, Build901 2013/11/27)

>  <Rbt.Parameter_File>
/home/malgorzata/Desktop/rDock_2013.1_src/data/scripts/hard_docking.prm

>  <Rbt.Receptor>
cavity.prm

>  <SCORE>
-5.36335

>  <SCORE.INTER>
-1.26384

>  <SCORE.INTER.CONST>
1

>  <SCORE.INTER.POLAR>
-1.56996

>  <SCORE.INTER.REPUL>
0.192257

>  <SCORE.INTER.ROT>
9

>  <SCORE.INTER.VDW>
-11.2873

>  <SCORE.INTER.norm>
-0.0451371

>  <SCORE.INTRA>
-3.90068

>  <SCORE.INTRA.DIHEDRAL>
-1.98036

>  <SCORE.INTRA.DIHEDRAL.0>
7.68839

>  <SCORE.INTRA.POLAR>
-0.0169406

>  <SCORE.INTRA.POLAR.0>
0

>  <SCORE.INTRA.REPUL>
0

>  <SCORE.INTRA.REPUL.0>
0

>  <SCORE.INTRA.VDW>
-2.8529

>  <SCORE.INTRA.VDW.0>
-2.73227

>  <SCORE.INTRA.norm>
-0.13931

>  <SCORE.RESTR>
0.758559

>  <SCORE.RESTR.CAVITY>
0.758559

>  <SCORE.RESTR.norm>
0.0270914

>  <SCORE.SYSTEM>
-0.957387

>  <SCORE.SYSTEM.CONST>
0

>  <SCORE.SYSTEM.DIHEDRAL>
7.4307

>  <SCORE.SYSTEM.POLAR>
-0.0931489

>  <SCORE.SYSTEM.REPUL>
0.262063

>  <SCORE.SYSTEM.VDW>
-5.66635

>  <SCORE.SYSTEM.norm>
-0.0341924

>  <SCORE.heavy>
28

>  <SCORE.norm>
-0.191548

$$$$
DPC.pdb
  rDOCK(R)          3D
libRbt.so/2013.1/901 2013/11/27
 32 33  0  0  0  0  0  0  0  0999 V2000
    2.0303   60.2113  -14.0973 C   0  0  0  0  0  0
    2.7497   60.2864  -15.0867 O   0  0  0  0  0  0
    2.4807   60.4988  -12.9965 O   0  0  0  0  0  0
    0.6020   59.8948  -14.2770 C   0  0  0  0  0  0
    0.0819   59.7293  -15.4978 C   0  0  0  0  0  0
   -1.3640   59.3512  -15.6719 C   0  0  0  0  0  0
   -2.1735   59.5824  -14.3987 C   0  0  0  0  0  0
   -3.4147   58.8204  -14.4732 N   0  0  0  0  0  0
   -4.6190   59.2860  -14.1080 C   0  0  0  0  0  0
   -4.7506   60.4007  -13.6320 O   0  0  0  0  0  0
   -5.8216   58.3594  -14.3645 C   0  0  0  0  0  0
   -1.3630   59.0985  -13.1984 C   0  0  0  0  0  0
   -0.1068   59.7208  -13.1616 O   0  0  0  0  0  0
   -2.0384   59.5382  -11.9190 C   0  0  0  0  0  0
   -2.2102   60.4927  -11.8975 O   0  0  0  0  0  0
   -2.4794   58.6337  -11.0554 N   0  0  0  0  0  0
   -3.2088   59.1539   -9.8776 C   0  0  0  0  0  0
   -2.2672   59.5868   -8.7495 C   0  0  0  0  0  0
   -3.0978   60.0060   -7.5529 C   0  0  0  0  0  0
   -3.8960   61.1705   -7.6099 C   0  0  0  0  0  0
   -3.0619   59.2648   -6.3630 C   0  0  0  0  0  0
   -4.6151   61.6032   -6.4818 C   0  0  0  0  0  0
   -3.7773   59.6935   -5.2404 C   0  0  0  0  0  0
   -4.5455   60.8648   -5.2863 C   0  0  0  0  0  0
   -2.2240   57.1995  -11.1690 C   0  0  0  0  0  0
   -3.3943   56.4438  -11.8215 C   0  0  0  0  0  0
   -4.6871   56.3937  -10.9860 C   0  0  0  0  0  0
   -1.9227   60.1180  -16.7533 N   0  0  0  0  0  0
    1.9204   60.4948  -12.2455 H   0  0  0  0  0  0
   -3.3655   57.8988  -14.8160 H   0  0  0  0  0  0
   -2.9402   60.1152  -16.6819 H   0  0  0  0  0  0
   -1.6431   59.7049  -17.6430 H   0  0  0  0  0  0
  1  2  2  0  0  0
  1  3  1  0  0  0
  1  4  1  0  0  0
  3 29  1  0  0  0
  4  5  2  0  0  0
  4 13  1  0  0  0
  5  6  1  0  0  0
  6  7  1  0  0  0
  6 28  1  0  0  0
  7  8  1  0  0  0
  7 12  1  0  0  0
  8  9  1  0  0  0
  8 30  1  0  0  0
  9 10  2  0  0  0
  9 11  1  0  0  0
 12 13  1  0  0  0
 12 14  1  0  0  0
 14 15  2  0  0  0
 14 16  1  0  0  0
 16 17  1  0  0  0
 16 25  1  0  0  0
 17 18  1  0  0  0
 18 19  1  0  0  0
 19 20  2  0  0  0
 19 21  1  0  0  0
 20 22  1  0  0  0
 21 23  2  0  0  0
 22 24  2  0  0  0
 23 24  1  0  0  0
 25 26  1  0  0  0
 26 27  1  0  0  0
 28 31  1  0  0  0
 28 32  1  0  0  0
M  END
>  <CHROM.0>
88.74716113,-67.81563643,-61.10014711,-179.83142245,176.40077668,94.10098020
121.58131835,-129.50500756,-164.05576667,-37.70361052,-148.31691491

>  <CHROM.1>
176.15408631,-1.95165721,-160.95909141,-137.02051894,-53.49673845,-83.98753299
-97.32340727,-175.83601429,-67.90156114,-67.57162885,-2.22332499,59.46786176
-11.81128691,-1.12361698,0.29610661,1.40912507

>  <FORMUL>
      DPC    C20 H27 N3 O5

>  <HET>
 DPC  A 466      28

>  <HETNAM>
     DPC 5-ACETYLAMINO-4-AMINO-6-(PHENETHYL-PROPYL-CARBAMOYL)-5,
   2 DPC 6-DIHYDRO-4H-PYRAN-2-CARBOXYLIC ACID

>  <Name>
DPC.pdb

>  <RI>
0

>  <Rbt.Current_Directory>
/home/malgorzata/Desktop/rDOCK_IFD/Wyniki/11a_neuraminidase/IFD

>  <Rbt.Executable>
rbdock ($Id: //depot/dev/client3/rdock/2013.1/src/exe/rbdock.cxx#4 $)

>  <Rbt.Library>
libRbt.so (2013.1, Build901 2013/11/27)

>  <Rbt.Parameter_File>
/home/malgorzata/Desktop/rDock_2013.1_src/data/scripts/hard_docking.prm

>  <Rbt.Receptor>
cavity.prm

>  <SCORE>
-7.72242

>  <SCORE.INTER>
-5.00215

>  <SCORE.INTER.CONST>
1

>  <SCORE.INTER.POLAR>
-0.824621

>  <SCORE.INTER.REPUL>
0

>  <SCORE.INTER.ROT>
9

>  <SCORE.INTER.VDW>
-16.5984

>  <SCORE.INTER.norm>
-0.178648

>  <SCORE.INTRA>
-0.676836

>  <SCORE.INTRA.DIHEDRAL>
0.121971

>  <SCORE.INTRA.DIHEDRAL.0>
7.68839

>  <SCORE.INTRA.POLAR>
-0.014783

>  <SCORE.INTRA.POLAR.0>
0

>  <SCORE.INTRA.REPUL>
0

>  <SCORE.INTRA.REPUL.0>
0

>  <SCORE.INTRA.VDW>
-0.687559

>  <SCORE.INTRA.VDW.0>
-2.73227

>  <SCORE.INTRA.norm>
-0.0241727

>  <SCORE.RESTR>
1.16699

>  <SCORE.RESTR.CAVITY>
1.16699

>  <SCORE.RESTR.norm>
0.0416782

>  <SCORE.SYSTEM>
-3.21042

>  <SCORE.SYSTEM.CONST>
0

>  <SCORE.SYSTEM.DIHEDRAL>
4.88785

>  <SCORE.SYSTEM.REPUL>
0.0951082

>  <SCORE.SYSTEM.VDW>
-6.12989

>  <SCORE.SYSTEM.norm>
-0.114658

>  <SCORE.heavy>
28

>  <SCORE.norm>
-0.275801

$$$$
DPC.pdb
  rDOCK(R)          3D
libRbt.so/2013.1/901 2013/11/27
 32 33  0  0  0  0  0  0  0  0999 V2000
   -1.8813   54.1130  -12.1638 C   0  0  0  0  0  0
   -1.5155   52.9448  -12.2221 O   0  0  0  0  0  0
   -2.2117   54.6971  -13.1871 O   0  0  0  0  0  0
   -2.0322   54.7475  -10.8420 C   0  0  0  0  0  0
   -1.4588   54.2195   -9.7555 C   0  0  0  0  0  0
   -1.5702   54.9026   -8.4195 C   0  0  0  0  0  0
   -2.6803   55.9501   -8.4028 C   0  0  0  0  0  0
   -2.4691   56.8563   -7.2799 N   0  0  0  0  0  0
   -1.3179   57.4954   -7.0212 C   0  0  0  0  0  0
   -0.3260   57.3188   -7.7077 O   0  0  0  0  0  0
   -1.3327   58.4912   -5.8470 C   0  0  0  0  0  0
   -2.6313   56.7485   -9.7035 C   0  0  0  0  0  0
   -2.7077   55.8963  -10.8147 O   0  0  0  0  0  0
   -3.8627   57.6192   -9.8116 C   0  0  0  0  0  0
   -4.5418   57.3866   -9.1592 O   0  0  0  0  0  0
   -3.8601   58.6779  -10.6101 N   0  0  0  0  0  0
   -5.0746   59.5228  -10.5812 C   0  0  0  0  0  0
   -4.9837   60.6441   -9.5414 C   0  0  0  0  0  0
   -5.0644   60.0342   -8.1560 C   0  0  0  0  0  0
   -6.1828   59.2560   -7.7821 C   0  0  0  0  0  0
   -4.0486   60.2593   -7.2158 C   0  0  0  0  0  0
   -6.2969   58.7446   -6.4773 C   0  0  0  0  0  0
   -4.1604   59.7505   -5.9180 C   0  0  0  0  0  0
   -5.2834   59.0038   -5.5367 C   0  0  0  0  0  0
   -2.7811   58.9990  -11.5416 C   0  0  0  0  0  0
   -2.8705   58.1894  -12.8466 C   0  0  0  0  0  0
   -4.1488   58.4214  -13.6737 C   0  0  0  0  0  0
   -1.8160   53.9125   -7.4052 N   0  0  0  0  0  0
   -2.5443   55.5718  -13.1406 H   0  0  0  0  0  0
   -3.2250   57.0102   -6.6682 H   0  0  0  0  0  0
   -1.0922   53.1950   -7.4478 H   0  0  0  0  0  0
   -2.7285   53.4845   -7.5619 H   0  0  0  0  0  0
  1  2  2  0  0  0
  1  3  1  0  0  0
  1  4  1  0  0  0
  3 29  1  0  0  0
  4  5  2  0  0  0
  4 13  1  0  0  0
  5  6  1  0  0  0
  6  7  1  0  0  0
  6 28  1  0  0  0
  7  8  1  0  0  0
  7 12  1  0  0  0
  8  9  1  0  0  0
  8 30  1  0  0  0
  9 10  2  0  0  0
  9 11  1  0  0  0
 12 13  1  0  0  0
 12 14  1  0  0  0
 14 15  2  0  0  0
 14 16  1  0  0  0
 16 17  1  0  0  0
 16 25  1  0  0  0
 17 18  1  0  0  0
 18 19  1  0  0  0
 19 20  2  0  0  0
 19 21  1  0  0  0
 20 22  1  0  0  0
 21 23  2  0  0  0
 22 24  2  0  0  0
 23 24  1  0  0  0
 25 26  1  0  0  0
 26 27  1  0  0  0
 28 31  1  0  0  0
 28 32  1  0  0  0
M  END
>  <CHROM.0>
82.99873804,175.27398684,-61.10014711,-55.07304509,-96.54416499,-107.98033485
104.77679009,-123.46681606,-99.76007683,-158.42240311,110.15587299

>  <CHROM.1>
176.05781404,17.76289982,54.48869870,51.60359726,-12.30963414,90.44783516
80.68819242,-70.52331818,-57.92404118,61.46518861,-3.14322959,57.25783537
-9.33152726,0.85209727,0.96116550,-1.76495714

>  <FORMUL>
      DPC    C20 H27 N3 O5

>  <HET>
 DPC  A 466      28

>  <HETNAM>
     DPC 5-ACETYLAMINO-4-AMINO-6-(PHENETHYL-PROPYL-CARBAMOYL)-5,
   2 DPC 6-DIHYDRO-4H-PYRAN-2-CARBOXYLIC ACID

>  <Name>
DPC.pdb

>  <RI>
0

>  <Rbt.Current_Directory>
/home/malgorzata/Desktop/rDOCK_IFD/Wyniki/11a_neuraminidase/IFD

>  <Rbt.Executable>
rbdock ($Id: //depot/dev/client3/rdock/2013.1/src/exe/rbdock.cxx#4 $)

>  <Rbt.Library>
libRbt.so (2013.1, Build901 2013/11/27)

>  <Rbt.Parameter_File>
/home/malgorzata/Desktop/rDock_2013.1_src/data/scripts/hard_docking.prm

>  <Rbt.Receptor>
cavity.prm

>  <SCORE>
-13.1122

>  <SCORE.INTER>
-9.42871

>  <SCORE.INTER.CONST>
1

>  <SCORE.INTER.POLAR>
-2.28276

>  <SCORE.INTER.REPUL>
0.0283467

>  <SCORE.INTER.ROT>
9

>  <SCORE.INTER.VDW>
-16.2091

>  <SCORE.INTER.norm>
-0.33674

>  <SCORE.INTRA>
-0.141236

>  <SCORE.INTRA.DIHEDRAL>
-1.14498

>  <SCORE.INTRA.DIHEDRAL.0>
7.68839

>  <SCORE.INTRA.POLAR>
-0.0139487

>  <SCORE.INTRA.POLAR.0>
0

>  <SCORE.INTRA.REPUL>
0

>  <SCORE.INTRA.REPUL.0>
0

>  <SCORE.INTRA.VDW>
0.478679

>  <SCORE.INTRA.VDW.0>
-2.73227

>  <SCORE.INTRA.norm>
-0.00504416

>  <SCORE.RESTR>
0

>  <SCORE.RESTR.CAVITY>
0

>  <SCORE.RESTR.norm>
0

>  <SCORE.SYSTEM>
-3.54227

>  <SCORE.SYSTEM.CONST>
0

>  <SCORE.SYSTEM.DIHEDRAL>
3.72499

>  <SCORE.SYSTEM.POLAR>
-0.407096

>  <SCORE.SYSTEM.REPUL>
0.295851

>  <SCORE.SYSTEM.VDW>
-5.49989

>  <SCORE.SYSTEM.norm>
-0.12651

>  <SCORE.heavy>
28

>  <SCORE.norm>
-0.468293

$$$$
DPC.pdb
  rDOCK(R)          3D
libRbt.so/2013.1/901 2013/11/27
 32 33  0  0  0  0  0  0  0  0999 V2000
   -1.0260   60.4515   -7.2549 C   0  0  0  0  0  0
   -0.1024   60.7324   -6.4999 O   0  0  0  0  0  0
   -1.7679   61.3357   -7.6612 O   0  0  0  0  0  0
   -1.1436   59.0695   -7.7536 C   0  0  0  0  0  0
   -0.6847   58.0377   -7.0373 C   0  0  0  0  0  0
   -0.8582   56.6254   -7.5264 C   0  0  0  0  0  0
   -1.2134   56.5729   -9.0100 C   0  0  0  0  0  0
   -1.7826   55.2670   -9.3220 N   0  0  0  0  0  0
   -2.8914   54.7636   -8.7584 C   0  0  0  0  0  0
   -3.4907   55.3688   -7.8861 O   0  0  0  0  0  0
   -3.3868   53.4113   -9.3030 C   0  0  0  0  0  0
   -2.2493   57.6531   -9.3126 C   0  0  0  0  0  0
   -1.7861   58.9145   -8.9112 O   0  0  0  0  0  0
   -2.4312   57.7775  -10.8085 C   0  0  0  0  0  0
   -1.5893   57.8836  -11.2785 O   0  0  0  0  0  0
   -3.6223   57.5691  -11.3529 N   0  0  0  0  0  0
   -3.6851   57.6212  -12.8304 C   0  0  0  0  0  0
   -3.7040   56.2274  -13.4657 C   0  0  0  0  0  0
   -2.3371   55.5944  -13.2969 C   0  0  0  0  0  0
   -2.1828   54.4236  -12.5212 C   0  0  0  0  0  0
   -1.2026   56.1776  -13.8794 C   0  0  0  0  0  0
   -0.9088   53.8700  -12.3036 C   0  0  0  0  0  0
    0.0651   55.6276  -13.6646 C   0  0  0  0  0  0
    0.2232   54.4836  -12.8706 C   0  0  0  0  0  0
   -4.8502   57.3700  -10.5861 C   0  0  0  0  0  0
   -5.6238   58.6809  -10.3642 C   0  0  0  0  0  0
   -4.9169   59.7132   -9.4660 C   0  0  0  0  0  0
    0.3571   55.8935   -7.2878 N   0  0  0  0  0  0
   -1.6350   62.2216   -7.3865 H   0  0  0  0  0  0
   -1.3204   54.7155   -9.9939 H   0  0  0  0  0  0
    0.4756   55.7488   -6.2850 H   0  0  0  0  0  0
    1.1498   56.4229   -7.6509 H   0  0  0  0  0  0
  1  2  2  0  0  0
  1  3  1  0  0  0
  1  4  1  0  0  0
  3 29  1  0  0  0
  4  5  2  0  0  0
  4 13  1  0  0  0
  5  6  1  0  0  0
  6  7  1  0  0  0
  6 28  1  0  0  0
  7  8  1  0  0  0
  7 12  1  0  0  0
  8  9  1  0  0  0
  8 30  1  0  0  0
  9 10  2  0  0  0
  9 11  1  0  0  0
 12 13  1  0  0  0
 12 14  1  0  0  0
 14 15  2  0  0  0
 14 16  1  0  0  0
 16 17  1  0  0  0
 16 25  1  0  0  0
 17 18  1  0  0  0
 18 19  1  0  0  0
 19 20  2  0  0  0
 19 21  1  0  0  0
 20 22  1  0  0  0
 21 23  2  0  0  0
 22 24  2  0  0  0
 23 24  1  0  0  0
 25 26  1  0  0  0
 26 27  1  0  0  0
 28 31  1  0  0  0
 28 32  1  0  0  0
M  END
>  <CHROM.0>
78.21701531,67.41318966,-61.10014711,-63.31360978,156.78518541,142.16119322
-73.03060980,-118.19669366,-166.31037721,167.92832487,-140.50070324

>  <CHROM.1>
-0.75268871,28.30523790,69.74311455,59.82413569,-51.24797964,100.78923237
93.31164167,-70.80245138,116.29930537,-66.53023083,-2.11221803,57.09863426
-10.00479493,1.44537481,-0.82423669,0.78641114

>  <FORMUL>
      DPC    C20 H27 N3 O5

>  <HET>
 DPC  A 466      28

>  <HETNAM>
     DPC 5-ACETYLAMINO-4-AMINO-6-(PHENETHYL-PROPYL-CARBAMOYL)-5,
   2 DPC 6-DIHYDRO-4H-PYRAN-2-CARBOXYLIC ACID

>  <Name>
DPC.pdb

>  <RI>
0

>  <Rbt.Current_Directory>
/home/malgorzata/Desktop/rDOCK_IFD/Wyniki/11a_neuraminidase/IFD

>  <Rbt.Executable>
rbdock ($Id: //depot/dev/client3/rdock/2013.1/src/exe/rbdock.cxx#4 $)

>  <Rbt.Library>
libRbt.so (2013.1, Build901 2013/11/27)

>  <Rbt.Parameter_File>
/home/malgorzata/Desktop/rDock_2013.1_src/data/scripts/hard_docking.prm

>  <Rbt.Receptor>
cavity.prm

>  <SCORE>
-17.9874

>  <SCORE.INTER>
-14.9958

>  <SCORE.INTER.CONST>
1

>  <SCORE.INTER.POLAR>
-2.58282

>  <SCORE.INTER.REPUL>
0.186457

>  <SCORE.INTER.ROT>
9

>  <SCORE.INTER.VDW>
-21.5465

>  <SCORE.INTER.norm>
-0.535563

>  <SCORE.INTRA>
-1.73983

>  <SCORE.INTRA.DIHEDRAL>
1.74237

>  <SCORE.INTRA.DIHEDRAL.0>
7.68839

>  <SCORE.INTRA.POLAR>
0

>  <SCORE.INTRA.POLAR.0>
0

>  <SCORE.INTRA.REPUL>
0

>  <SCORE.INTRA.REPUL.0>
0

>  <SCORE.INTRA.VDW>
-2.61102

>  <SCORE.INTRA.VDW.0>
-2.73227

>  <SCORE.INTRA.norm>
-0.0621368

>  <SCORE.RESTR>
0

>  <SCORE.RESTR.CAVITY>
0

>  <SCORE.RESTR.norm>
0

>  <SCORE.SYSTEM>
-1.25183

>  <SCORE.SYSTEM.CONST>
0

>  <SCORE.SYSTEM.DIHEDRAL>
3.35101

>  <SCORE.SYSTEM.POLAR>
-0.181263

>  <SCORE.SYSTEM.REPUL>
0.526776

>  <SCORE.SYSTEM.VDW>
-4.94492

>  <SCORE.SYSTEM.norm>
-0.0447083

>  <SCORE.heavy>
28

>  <SCORE.norm>
-0.642408

$$$$
DPC.pdb
  rDOCK(R)          3D
libRbt.so/2013.1/901 2013/11/27
 32 33  0  0  0  0  0  0  0  0999 V2000
   -0.7371   61.1295   -4.5384 C   0  0  0  0  0  0
   -1.0676   60.5408   -3.5156 O   0  0  0  0  0  0
    0.0751   62.0427   -4.4772 O   0  0  0  0  0  0
   -1.2348   60.6385   -5.8359 C   0  0  0  0  0  0
   -1.9430   59.5072   -5.9181 C   0  0  0  0  0  0
   -2.4958   59.0412   -7.2376 C   0  0  0  0  0  0
   -1.8337   59.7479   -8.4174 C   0  0  0  0  0  0
   -2.6724   59.5964   -9.6008 N   0  0  0  0  0  0
   -2.5769   58.5868  -10.4795 C   0  0  0  0  0  0
   -1.7230   57.7243  -10.3646 O   0  0  0  0  0  0
   -3.6267   58.5530  -11.6053 C   0  0  0  0  0  0
   -1.6932   61.2334   -8.0931 C   0  0  0  0  0  0
   -0.9951   61.4173   -6.8908 O   0  0  0  0  0  0
   -0.8272   61.9015   -9.1371 C   0  0  0  0  0  0
    0.0554   61.5037   -9.1990 O   0  0  0  0  0  0
   -1.3514   62.7996   -9.9599 N   0  0  0  0  0  0
   -0.4520   63.3313  -11.0079 C   0  0  0  0  0  0
   -1.0046   63.1138  -12.4200 C   0  0  0  0  0  0
   -0.5237   61.7706  -12.9319 C   0  0  0  0  0  0
    0.8142   61.6045  -13.3547 C   0  0  0  0  0  0
   -1.4050   60.6837  -13.0242 C   0  0  0  0  0  0
    1.2493   60.3814  -13.8947 C   0  0  0  0  0  0
   -0.9735   59.4663  -13.5603 C   0  0  0  0  0  0
    0.3453   59.3094  -14.0080 C   0  0  0  0  0  0
   -2.7087   63.3273   -9.8398 C   0  0  0  0  0  0
   -3.7026   62.6105  -10.7697 C   0  0  0  0  0  0
   -5.1584   63.1044  -10.6758 C   0  0  0  0  0  0
   -2.3069   57.6194   -7.3499 N   0  0  0  0  0  0
    0.4376   62.2926   -3.6500 H   0  0  0  0  0  0
   -3.3574   60.2837   -9.7667 H   0  0  0  0  0  0
   -2.6791   57.2964   -8.2429 H   0  0  0  0  0  0
   -2.7963   57.1502   -6.5878 H   0  0  0  0  0  0
  1  2  2  0  0  0
  1  3  1  0  0  0
  1  4  1  0  0  0
  3 29  1  0  0  0
  4  5  2  0  0  0
  4 13  1  0  0  0
  5  6  1  0  0  0
  6  7  1  0  0  0
  6 28  1  0  0  0
  7  8  1  0  0  0
  7 12  1  0  0  0
  8  9  1  0  0  0
  8 30  1  0  0  0
  9 10  2  0  0  0
  9 11  1  0  0  0
 12 13  1  0  0  0
 12 14  1  0  0  0
 14 15  2  0  0  0
 14 16  1  0  0  0
 16 17  1  0  0  0
 16 25  1  0  0  0
 17 18  1  0  0  0
 18 19  1  0  0  0
 19 20  2  0  0  0
 19 21  1  0  0  0
 20 22  1  0  0  0
 21 23  2  0  0  0
 22 24  2  0  0  0
 23 24  1  0  0  0
 25 26  1  0  0  0
 26 27  1  0  0  0
 28 31  1  0  0  0
 28 32  1  0  0  0
M  END
>  <CHROM.0>
93.02528898,175.68468938,-61.10014711,63.95407203,170.79396894,161.95813176
102.08222299,-129.88983363,-168.00469691,-167.72561474,-11.23423808

>  <CHROM.1>
-0.37364887,-5.55409500,-179.96433400,-90.09230991,-58.24170433,122.82552776
-97.55731473,-89.35642135,-74.93813161,179.06531230,-1.46933014,60.79225929
-9.48571171,-1.78984031,-1.35282329,-1.74144929

>  <FORMUL>
      DPC    C20 H27 N3 O5

>  <HET>
 DPC  A 466      28

>  <HETNAM>
     DPC 5-ACETYLAMINO-4-AMINO-6-(PHENETHYL-PROPYL-CARBAMOYL)-5,
   2 DPC 6-DIHYDRO-4H-PYRAN-2-CARBOXYLIC ACID

>  <Name>
DPC.pdb

>  <RI>
0

>  <Rbt.Current_Directory>
/home/malgorzata/Desktop/rDOCK_IFD/Wyniki/11a_neuraminidase/IFD

>  <Rbt.Executable>
rbdock ($Id: //depot/dev/client3/rdock/2013.1/src/exe/rbdock.cxx#4 $)

>  <Rbt.Library>
libRbt.so (2013.1, Build901 2013/11/27)

>  <Rbt.Parameter_File>
/home/malgorzata/Desktop/rDock_2013.1_src/data/scripts/hard_docking.prm

>  <Rbt.Receptor>
cavity.prm

>  <SCORE>
-4.37318

>  <SCORE.INTER>
-0.47686

>  <SCORE.INTER.CONST>
1

>  <SCORE.INTER.POLAR>
-1.02559

>  <SCORE.INTER.REPUL>
0

>  <SCORE.INTER.ROT>
9

>  <SCORE.INTER.VDW>
-11.3899

>  <SCORE.INTER.norm>
-0.0170307

>  <SCORE.INTRA>
-0.36883

>  <SCORE.INTRA.DIHEDRAL>
2.30382

>  <SCORE.INTRA.DIHEDRAL.0>
7.68839

>  <SCORE.INTRA.POLAR>
0

>  <SCORE.INTRA.POLAR.0>
0

>  <SCORE.INTRA.REPUL>
0

>  <SCORE.INTRA.REPUL.0>
0

>  <SCORE.INTRA.VDW>
-1.52074

>  <SCORE.INTRA.VDW.0>
-2.73227

>  <SCORE.INTRA.norm>
-0.0131725

>  <SCORE.RESTR>
0.236283

>  <SCORE.RESTR.CAVITY>
0.236283

>  <SCORE.RESTR.norm>
0.00843868

>  <SCORE.SYSTEM>
-3.76377

>  <SCORE.SYSTEM.CONST>
0

>  <SCORE.SYSTEM.DIHEDRAL>
3.23057

>  <SCORE.SYSTEM.POLAR>
-0.413431

>  <SCORE.SYSTEM.REPUL>
0.0967186

>  <SCORE.SYSTEM.VDW>
-4.45698

>  <SCORE.SYSTEM.norm>
-0.13442

>  <SCORE.heavy>
28

>  <SCORE.norm>
-0.156185

$$$$
DPC.pdb
  rDOCK(R)          3D
libRbt.so/2013.1/901 2013/11/27
 32 33  0  0  0  0  0  0  0  0999 V2000
   -5.5450   62.9721   -9.8874 C   0  0  0  0  0  0
   -5.2173   64.1239  -10.1477 O   0  0  0  0  0  0
   -6.0652   62.2793  -10.7515 O   0  0  0  0  0  0
   -5.1895   62.4100   -8.5720 C   0  0  0  0  0  0
   -4.6117   63.1670   -7.6333 C   0  0  0  0  0  0
   -4.3027   62.6018   -6.2735 C   0  0  0  0  0  0
   -4.3460   61.0760   -6.2644 C   0  0  0  0  0  0
   -4.4726   60.6070   -4.8894 N   0  0  0  0  0  0
   -3.4780   60.0566   -4.1764 C   0  0  0  0  0  0
   -2.3773   59.8662   -4.6647 O   0  0  0  0  0  0
   -3.7882   59.7245   -2.7052 C   0  0  0  0  0  0
   -5.5594   60.6075   -7.0643 C   0  0  0  0  0  0
   -5.5376   61.1407   -8.3612 O   0  0  0  0  0  0
   -5.4844   59.1115   -7.2711 C   0  0  0  0  0  0
   -6.2810   58.6524   -6.9618 O   0  0  0  0  0  0
   -4.4882   58.5864   -7.9714 N   0  0  0  0  0  0
   -4.5475   57.1256   -8.2001 C   0  0  0  0  0  0
   -4.9684   56.7731   -9.6303 C   0  0  0  0  0  0
   -4.9037   55.2685   -9.8024 C   0  0  0  0  0  0
   -3.6564   54.6168   -9.9276 C   0  0  0  0  0  0
   -6.0785   54.5060   -9.8726 C   0  0  0  0  0  0
   -3.5908   53.2310  -10.1563 C   0  0  0  0  0  0
   -6.0148   53.1275  -10.0991 C   0  0  0  0  0  0
   -4.7792   52.4843  -10.2536 C   0  0  0  0  0  0
   -3.3340   59.3443   -8.4493 C   0  0  0  0  0  0
   -3.5069   59.8263   -9.8999 C   0  0  0  0  0  0
   -2.4515   60.8388  -10.3826 C   0  0  0  0  0  0
   -3.0020   63.0571   -5.8606 N   0  0  0  0  0  0
   -6.2843   61.3870  -10.5675 H   0  0  0  0  0  0
   -5.3501   60.7010   -4.4532 H   0  0  0  0  0  0
   -2.6432   62.4431   -5.1293 H   0  0  0  0  0  0
   -3.0734   64.0089   -5.5007 H   0  0  0  0  0  0
  1  2  2  0  0  0
  1  3  1  0  0  0
  1  4  1  0  0  0
  3 29  1  0  0  0
  4  5  2  0  0  0
  4 13  1  0  0  0
  5  6  1  0  0  0
  6  7  1  0  0  0
  6 28  1  0  0  0
  7  8  1  0  0  0
  7 12  1  0  0  0
  8  9  1  0  0  0
  8 30  1  0  0  0
  9 10  2  0  0  0
  9 11  1  0  0  0
 12 13  1  0  0  0
 12 14  1  0  0  0
 14 15  2  0  0  0
 14 16  1  0  0  0
 16 17  1  0  0  0
 16 25  1  0  0  0
 17 18  1  0  0  0
 18 19  1  0  0  0
 19 20  2  0  0  0
 19 21  1  0  0  0
 20 22  1  0  0  0
 21 23  2  0  0  0
 22 24  2  0  0  0
 23 24  1  0  0  0
 25 26  1  0  0  0
 26 27  1  0  0  0
 28 31  1  0  0  0
 28 32  1  0  0  0
M  END
>  <CHROM.0>
93.93193394,173.64606833,-61.10014711,65.95913428,164.82526508,153.76582250
-67.36395336,-122.20072372,-64.94640566,-164.34702042,-152.03166009

>  <CHROM.1>
177.42507352,5.15246024,-160.00048235,-105.28349031,125.23150275,104.56834417
-95.63214410,175.89775078,-74.60094443,169.45651422,-4.54598302,59.29689846
-8.04465410,1.33246196,-1.34513274,0.10283024

>  <FORMUL>
      DPC    C20 H27 N3 O5

>  <HET>
 DPC  A 466      28

>  <HETNAM>
     DPC 5-ACETYLAMINO-4-AMINO-6-(PHENETHYL-PROPYL-CARBAMOYL)-5,
   2 DPC 6-DIHYDRO-4H-PYRAN-2-CARBOXYLIC ACID

>  <Name>
DPC.pdb

>  <RI>
0

>  <Rbt.Current_Directory>
/home/malgorzata/Desktop/rDOCK_IFD/Wyniki/11a_neuraminidase/IFD

>  <Rbt.Executable>
rbdock ($Id: //depot/dev/client3/rdock/2013.1/src/exe/rbdock.cxx#4 $)

>  <Rbt.Library>
libRbt.so (2013.1, Build901 2013/11/27)

>  <Rbt.Parameter_File>
/home/malgorzata/Desktop/rDock_2013.1_src/data/scripts/hard_docking.prm

>  <Rbt.Receptor>
cavity.prm

>  <SCORE>
-14.7808

>  <SCORE.INTER>
-9.3418

>  <SCORE.INTER.CONST>
1

>  <SCORE.INTER.POLAR>
-1.84726

>  <SCORE.INTER.REPUL>
0.0273797

>  <SCORE.INTER.ROT>
9

>  <SCORE.INTER.VDW>
-17.598

>  <SCORE.INTER.norm>
-0.333636

>  <SCORE.INTRA>
-1.73496

>  <SCORE.INTRA.DIHEDRAL>
-1.22281

>  <SCORE.INTRA.DIHEDRAL.0>
7.68839

>  <SCORE.INTRA.POLAR>
-0.019406

>  <SCORE.INTRA.POLAR.0>
0

>  <SCORE.INTRA.REPUL>
0

>  <SCORE.INTRA.REPUL.0>
0

>  <SCORE.INTRA.VDW>
-1.05758

>  <SCORE.INTRA.VDW.0>
-2.73227

>  <SCORE.INTRA.norm>
-0.0619628

>  <SCORE.RESTR>
0

>  <SCORE.RESTR.CAVITY>
0

>  <SCORE.RESTR.norm>
0

>  <SCORE.SYSTEM>
-3.70404

>  <SCORE.SYSTEM.CONST>
0

>  <SCORE.SYSTEM.DIHEDRAL>
3.56337

>  <SCORE.SYSTEM.POLAR>
-0.419422

>  <SCORE.SYSTEM.REPUL>
0.0575588

>  <SCORE.SYSTEM.VDW>
-4.34748

>  <SCORE.SYSTEM.norm>
-0.132287

>  <SCORE.heavy>
28

>  <SCORE.norm>
-0.527886

$$$$
