DPC.pdb
  rDOCK(R)          3D
libRbt.so/2013.1/901 2013/11/27
 32 33  0  0  0  0  0  0  0  0999 V2000
   -5.8045   63.2169   -9.5037 C   0  0  0  0  0  0
   -5.1010   64.0577   -8.9559 O   0  0  0  0  0  0
   -6.8476   63.5581  -10.0448 O   0  0  0  0  0  0
   -5.3121   61.8313   -9.6038 C   0  0  0  0  0  0
   -5.9847   60.9105  -10.3023 C   0  0  0  0  0  0
   -5.4477   59.5124  -10.4470 C   0  0  0  0  0  0
   -4.3532   59.2112   -9.4267 C   0  0  0  0  0  0
   -3.5876   58.0522   -9.8711 N   0  0  0  0  0  0
   -3.2010   57.8330  -11.1372 C   0  0  0  0  0  0
   -3.5142   58.5937  -12.0369 O   0  0  0  0  0  0
   -2.3083   56.6023  -11.3806 C   0  0  0  0  0  0
   -3.4204   60.4159   -9.3265 C   0  0  0  0  0  0
   -4.1404   61.5798   -9.0203 O   0  0  0  0  0  0
   -2.4814   60.2352   -8.1552 C   0  0  0  0  0  0
   -2.9101   60.4126   -7.3033 O   0  0  0  0  0  0
   -1.2773   59.7123   -8.3431 N   0  0  0  0  0  0
   -0.4641   59.4875   -7.1274 C   0  0  0  0  0  0
   -0.6216   58.0689   -6.5711 C   0  0  0  0  0  0
    0.0824   57.0988   -7.4988 C   0  0  0  0  0  0
   -0.6651   56.2495   -8.3451 C   0  0  0  0  0  0
    1.4816   57.0063   -7.5080 C   0  0  0  0  0  0
   -0.0216   55.2995   -9.1578 C   0  0  0  0  0  0
    2.1231   56.0625   -8.3164 C   0  0  0  0  0  0
    1.3815   55.1989   -9.1339 C   0  0  0  0  0  0
   -0.7045   59.4252   -9.6563 C   0  0  0  0  0  0
    0.3028   60.4975  -10.1056 C   0  0  0  0  0  0
    0.9124   60.2774  -11.5027 C   0  0  0  0  0  0
   -6.5294   58.5762  -10.2956 N   0  0  0  0  0  0
   -7.1244   64.4524  -10.0068 H   0  0  0  0  0  0
   -3.3366   57.3831   -9.1940 H   0  0  0  0  0  0
   -7.0806   58.8235   -9.4737 H   0  0  0  0  0  0
   -6.1514   57.6357  -10.1811 H   0  0  0  0  0  0
  1  2  2  0  0  0
  1  3  1  0  0  0
  1  4  1  0  0  0
  3 29  1  0  0  0
  4  5  2  0  0  0
  4 13  1  0  0  0
  5  6  1  0  0  0
  6  7  1  0  0  0
  6 28  1  0  0  0
  7  8  1  0  0  0
  7 12  1  0  0  0
  8  9  1  0  0  0
  8 30  1  0  0  0
  9 10  2  0  0  0
  9 11  1  0  0  0
 12 13  1  0  0  0
 12 14  1  0  0  0
 14 15  2  0  0  0
 14 16  1  0  0  0
 16 17  1  0  0  0
 16 25  1  0  0  0
 17 18  1  0  0  0
 18 19  1  0  0  0
 19 20  2  0  0  0
 19 21  1  0  0  0
 20 22  1  0  0  0
 21 23  2  0  0  0
 22 24  2  0  0  0
 23 24  1  0  0  0
 25 26  1  0  0  0
 26 27  1  0  0  0
 28 31  1  0  0  0
 28 32  1  0  0  0
M  END
>  <CHROM.0>
140.55875027,178.78274579,-61.03597488,174.43481445,-24.49768620,-30.37483993
38.95108610,11.78777073,-173.55832279

>  <CHROM.1>
-2.68978473,-173.57015047,-47.29882633,41.76329916,-76.90349430,93.53645696
101.05607624,71.75234591,-106.38494089,-178.20746867,-2.51733997,59.32329144
-9.31568350,-2.59333012,0.46489698,-2.72311635

>  <FORMUL>
      DPC    C20 H27 N3 O5

>  <HET>
 DPC  A 466      28

>  <HETNAM>
     DPC 5-ACETYLAMINO-4-AMINO-6-(PHENETHYL-PROPYL-CARBAMOYL)-5,
   2 DPC 6-DIHYDRO-4H-PYRAN-2-CARBOXYLIC ACID

>  <Name>
DPC.pdb

>  <RI>
0

>  <Rbt.Current_Directory>
/home/malgorzata/Desktop/rDOCK_IFD/test11/IFD

>  <Rbt.Executable>
rbdock ($Id: //depot/dev/client3/rdock/2013.1/src/exe/rbdock.cxx#4 $)

>  <Rbt.Library>
libRbt.so (2013.1, Build901 2013/11/27)

>  <Rbt.Parameter_File>
/home/malgorzata/Desktop/rDock_2013.1_src/data/scripts/hard_docking.prm

>  <Rbt.Receptor>
cavity.prm

>  <SCORE>
-14.8598

>  <SCORE.INTER>
-6.60135

>  <SCORE.INTER.CONST>
1

>  <SCORE.INTER.POLAR>
-1.67848

>  <SCORE.INTER.REPUL>
0.189225

>  <SCORE.INTER.ROT>
9

>  <SCORE.INTER.VDW>
-16.2406

>  <SCORE.INTER.norm>
-0.235762

>  <SCORE.INTRA>
-1.18719

>  <SCORE.INTRA.DIHEDRAL>
-0.450447

>  <SCORE.INTRA.DIHEDRAL.0>
7.68839

>  <SCORE.INTRA.POLAR>
0

>  <SCORE.INTRA.POLAR.0>
0

>  <SCORE.INTRA.REPUL>
0

>  <SCORE.INTRA.REPUL.0>
0

>  <SCORE.INTRA.VDW>
-0.961966

>  <SCORE.INTRA.VDW.0>
-2.73227

>  <SCORE.INTRA.norm>
-0.0423996

>  <SCORE.RESTR>
0

>  <SCORE.RESTR.CAVITY>
0

>  <SCORE.RESTR.norm>
0

>  <SCORE.SYSTEM>
-7.07124

>  <SCORE.SYSTEM.CONST>
0

>  <SCORE.SYSTEM.DIHEDRAL>
2.5725

>  <SCORE.SYSTEM.POLAR>
-2.05381

>  <SCORE.SYSTEM.REPUL>
0.081388

>  <SCORE.SYSTEM.VDW>
-1.78148

>  <SCORE.SYSTEM.norm>
-0.252544

>  <SCORE.heavy>
28

>  <SCORE.norm>
-0.530706

$$$$
DPC.pdb
  rDOCK(R)          3D
libRbt.so/2013.1/901 2013/11/27
 32 33  0  0  0  0  0  0  0  0999 V2000
   -2.2242   57.2676  -10.9225 C   0  0  0  0  0  0
   -2.5359   57.8295  -11.9661 O   0  0  0  0  0  0
   -2.0953   56.0509  -10.9036 O   0  0  0  0  0  0
   -1.8908   58.0873   -9.7438 C   0  0  0  0  0  0
   -1.2344   57.5625   -8.7037 C   0  0  0  0  0  0
   -0.8480   58.4185   -7.5281 C   0  0  0  0  0  0
   -1.6135   59.7388   -7.5052 C   0  0  0  0  0  0
   -0.9174   60.6830   -6.6387 N   0  0  0  0  0  0
    0.3327   61.1264   -6.8420 C   0  0  0  0  0  0
    1.0065   60.7200   -7.7732 O   0  0  0  0  0  0
    0.8476   62.2028   -5.8688 C   0  0  0  0  0  0
   -1.6671   60.3081   -8.9210 C   0  0  0  0  0  0
   -2.2204   59.3771   -9.8120 O   0  0  0  0  0  0
   -2.6213   61.4804   -8.9612 C   0  0  0  0  0  0
   -3.5354   61.2237   -8.7625 O   0  0  0  0  0  0
   -2.1525   62.7153   -9.0790 N   0  0  0  0  0  0
   -3.1526   63.8041   -9.0160 C   0  0  0  0  0  0
   -3.5023   64.1959   -7.5769 C   0  0  0  0  0  0
   -4.3640   63.1070   -6.9692 C   0  0  0  0  0  0
   -3.8156   62.2001   -6.0348 C   0  0  0  0  0  0
   -5.7063   62.9627   -7.3483 C   0  0  0  0  0  0
   -4.5897   61.1458   -5.5190 C   0  0  0  0  0  0
   -6.4778   61.9151   -6.8355 C   0  0  0  0  0  0
   -5.9265   60.9969   -5.9316 C   0  0  0  0  0  0
   -0.7505   63.0386   -9.3339 C   0  0  0  0  0  0
   -0.4838   63.3749  -10.8111 C   0  0  0  0  0  0
   -0.8846   62.2771  -11.8142 C   0  0  0  0  0  0
   -1.0957   57.6878   -6.3139 N   0  0  0  0  0  0
   -2.2245   55.5539  -11.6874 H   0  0  0  0  0  0
   -1.3988   61.0189   -5.8484 H   0  0  0  0  0  0
   -0.9999   58.3141   -5.5146 H   0  0  0  0  0  0
   -0.4220   56.9263   -6.2319 H   0  0  0  0  0  0
  1  2  2  0  0  0
  1  3  1  0  0  0
  1  4  1  0  0  0
  3 29  1  0  0  0
  4  5  2  0  0  0
  4 13  1  0  0  0
  5  6  1  0  0  0
  6  7  1  0  0  0
  6 28  1  0  0  0
  7  8  1  0  0  0
  7 12  1  0  0  0
  8  9  1  0  0  0
  8 30  1  0  0  0
  9 10  2  0  0  0
  9 11  1  0  0  0
 12 13  1  0  0  0
 12 14  1  0  0  0
 14 15  2  0  0  0
 14 16  1  0  0  0
 16 17  1  0  0  0
 16 25  1  0  0  0
 17 18  1  0  0  0
 18 19  1  0  0  0
 19 20  2  0  0  0
 19 21  1  0  0  0
 20 22  1  0  0  0
 21 23  2  0  0  0
 22 24  2  0  0  0
 23 24  1  0  0  0
 25 26  1  0  0  0
 26 27  1  0  0  0
 28 31  1  0  0  0
 28 32  1  0  0  0
M  END
>  <CHROM.0>
99.84361337,-66.26492961,-61.03597488,171.68174690,-26.26016769,137.38370104
32.82795435,12.76855081,79.36205769

>  <CHROM.1>
0.75239571,-163.15050479,-169.73682861,61.46640175,-63.76742260,83.39709741
100.22948380,-73.33784897,104.56427888,-56.97002047,-2.23156893,60.72120824
-8.38602626,1.08947546,-0.51332392,-2.86704614

>  <FORMUL>
      DPC    C20 H27 N3 O5

>  <HET>
 DPC  A 466      28

>  <HETNAM>
     DPC 5-ACETYLAMINO-4-AMINO-6-(PHENETHYL-PROPYL-CARBAMOYL)-5,
   2 DPC 6-DIHYDRO-4H-PYRAN-2-CARBOXYLIC ACID

>  <Name>
DPC.pdb

>  <RI>
0

>  <Rbt.Current_Directory>
/home/malgorzata/Desktop/rDOCK_IFD/test11/IFD

>  <Rbt.Executable>
rbdock ($Id: //depot/dev/client3/rdock/2013.1/src/exe/rbdock.cxx#4 $)

>  <Rbt.Library>
libRbt.so (2013.1, Build901 2013/11/27)

>  <Rbt.Parameter_File>
/home/malgorzata/Desktop/rDock_2013.1_src/data/scripts/hard_docking.prm

>  <Rbt.Receptor>
cavity.prm

>  <SCORE>
-19.4272

>  <SCORE.INTER>
-8.00702

>  <SCORE.INTER.CONST>
1

>  <SCORE.INTER.POLAR>
-2.60538

>  <SCORE.INTER.REPUL>
0.00148036

>  <SCORE.INTER.ROT>
9

>  <SCORE.INTER.VDW>
-13.5561

>  <SCORE.INTER.norm>
-0.285965

>  <SCORE.INTRA>
-2.07823

>  <SCORE.INTRA.DIHEDRAL>
0.606306

>  <SCORE.INTRA.DIHEDRAL.0>
7.68839

>  <SCORE.INTRA.POLAR>
0

>  <SCORE.INTRA.POLAR.0>
0

>  <SCORE.INTRA.REPUL>
0

>  <SCORE.INTRA.REPUL.0>
0

>  <SCORE.INTRA.VDW>
-2.38138

>  <SCORE.INTRA.VDW.0>
-2.73227

>  <SCORE.INTRA.norm>
-0.0742223

>  <SCORE.RESTR>
0

>  <SCORE.RESTR.CAVITY>
0

>  <SCORE.RESTR.norm>
0

>  <SCORE.SYSTEM>
-9.34196

>  <SCORE.SYSTEM.CONST>
0

>  <SCORE.SYSTEM.DIHEDRAL>
2.90773

>  <SCORE.SYSTEM.POLAR>
-3.05477

>  <SCORE.SYSTEM.REPUL>
0.196401

>  <SCORE.SYSTEM.VDW>
-1.39163

>  <SCORE.SYSTEM.norm>
-0.333642

>  <SCORE.heavy>
28

>  <SCORE.norm>
-0.693829

$$$$
DPC.pdb
  rDOCK(R)          3D
libRbt.so/2013.1/901 2013/11/27
 32 33  0  0  0  0  0  0  0  0999 V2000
   -2.2015   62.4972   -3.9863 C   0  0  0  0  0  0
   -0.9938   62.5410   -3.7828 O   0  0  0  0  0  0
   -2.9496   63.2345   -3.3585 O   0  0  0  0  0  0
   -2.7105   61.6427   -5.0740 C   0  0  0  0  0  0
   -3.9409   61.8168   -5.5678 C   0  0  0  0  0  0
   -4.4338   60.9781   -6.7157 C   0  0  0  0  0  0
   -3.5717   59.7366   -6.9291 C   0  0  0  0  0  0
   -3.8098   59.2105   -8.2682 N   0  0  0  0  0  0
   -3.5706   59.8816   -9.4053 C   0  0  0  0  0  0
   -3.1659   61.0316   -9.3902 O   0  0  0  0  0  0
   -3.7895   59.1092  -10.7191 C   0  0  0  0  0  0
   -2.1003   60.1238   -6.8002 C   0  0  0  0  0  0
   -1.8551   60.7479   -5.5685 O   0  0  0  0  0  0
   -1.2478   58.8755   -6.7658 C   0  0  0  0  0  0
   -1.6920   58.1330   -6.3272 O   0  0  0  0  0  0
   -0.1090   58.8294   -7.4438 N   0  0  0  0  0  0
    0.6113   57.5369   -7.4268 C   0  0  0  0  0  0
    1.2115   57.1826   -8.7909 C   0  0  0  0  0  0
    0.1746   56.4302   -9.6011 C   0  0  0  0  0  0
   -0.7775   57.1337  -10.3724 C   0  0  0  0  0  0
    0.1237   55.0291   -9.5720 C   0  0  0  0  0  0
   -1.7846   56.4450  -11.0713 C   0  0  0  0  0  0
   -0.8769   54.3428  -10.2673 C   0  0  0  0  0  0
   -1.8402   55.0407  -11.0084 C   0  0  0  0  0  0
    0.4868   59.9774   -8.1238 C   0  0  0  0  0  0
   -0.1198   60.2152   -9.5173 C   0  0  0  0  0  0
    0.6148   61.2576  -10.3808 C   0  0  0  0  0  0
   -5.7960   60.5907   -6.4630 N   0  0  0  0  0  0
   -2.5969   63.8407   -2.7371 H   0  0  0  0  0  0
   -4.1717   58.2981   -8.3433 H   0  0  0  0  0  0
   -5.8801   60.2479   -5.5060 H   0  0  0  0  0  0
   -6.0658   59.8527   -7.1134 H   0  0  0  0  0  0
  1  2  2  0  0  0
  1  3  1  0  0  0
  1  4  1  0  0  0
  3 29  1  0  0  0
  4  5  2  0  0  0
  4 13  1  0  0  0
  5  6  1  0  0  0
  6  7  1  0  0  0
  6 28  1  0  0  0
  7  8  1  0  0  0
  7 12  1  0  0  0
  8  9  1  0  0  0
  8 30  1  0  0  0
  9 10  2  0  0  0
  9 11  1  0  0  0
 12 13  1  0  0  0
 12 14  1  0  0  0
 14 15  2  0  0  0
 14 16  1  0  0  0
 16 17  1  0  0  0
 16 25  1  0  0  0
 17 18  1  0  0  0
 18 19  1  0  0  0
 19 20  2  0  0  0
 19 21  1  0  0  0
 20 22  1  0  0  0
 21 23  2  0  0  0
 22 24  2  0  0  0
 23 24  1  0  0  0
 25 26  1  0  0  0
 26 27  1  0  0  0
 28 31  1  0  0  0
 28 32  1  0  0  0
M  END
>  <CHROM.0>
78.57273509,177.22995702,-61.03597488,-71.51179788,-176.71959484,134.81613749
30.09355021,1.42664612,-173.16186293

>  <CHROM.1>
1.17454356,-162.20165119,-46.78955039,61.12737174,-33.38960620,139.55139701
-82.85415941,-88.09742788,86.05065295,-170.36557552,-1.81592109,59.35343215
-7.75263659,-1.88010233,0.27613198,-2.30491155

>  <FORMUL>
      DPC    C20 H27 N3 O5

>  <HET>
 DPC  A 466      28

>  <HETNAM>
     DPC 5-ACETYLAMINO-4-AMINO-6-(PHENETHYL-PROPYL-CARBAMOYL)-5,
   2 DPC 6-DIHYDRO-4H-PYRAN-2-CARBOXYLIC ACID

>  <Name>
DPC.pdb

>  <RI>
0

>  <Rbt.Current_Directory>
/home/malgorzata/Desktop/rDOCK_IFD/test11/IFD

>  <Rbt.Executable>
rbdock ($Id: //depot/dev/client3/rdock/2013.1/src/exe/rbdock.cxx#4 $)

>  <Rbt.Library>
libRbt.so (2013.1, Build901 2013/11/27)

>  <Rbt.Parameter_File>
/home/malgorzata/Desktop/rDock_2013.1_src/data/scripts/hard_docking.prm

>  <Rbt.Receptor>
cavity.prm

>  <SCORE>
-26.4603

>  <SCORE.INTER>
-15.519

>  <SCORE.INTER.CONST>
1

>  <SCORE.INTER.POLAR>
-3.61399

>  <SCORE.INTER.REPUL>
0.148531

>  <SCORE.INTER.ROT>
9

>  <SCORE.INTER.VDW>
-18.3741

>  <SCORE.INTER.norm>
-0.55425

>  <SCORE.INTRA>
1.26043

>  <SCORE.INTRA.DIHEDRAL>
2.47937

>  <SCORE.INTRA.DIHEDRAL.0>
7.68839

>  <SCORE.INTRA.POLAR>
0

>  <SCORE.INTRA.POLAR.0>
0

>  <SCORE.INTRA.REPUL>
0

>  <SCORE.INTRA.REPUL.0>
0

>  <SCORE.INTRA.VDW>
0.020744

>  <SCORE.INTRA.VDW.0>
-2.73227

>  <SCORE.INTRA.norm>
0.0450153

>  <SCORE.RESTR>
0

>  <SCORE.RESTR.CAVITY>
0

>  <SCORE.RESTR.norm>
0

>  <SCORE.SYSTEM>
-12.2018

>  <SCORE.SYSTEM.CONST>
0

>  <SCORE.SYSTEM.DIHEDRAL>
2.77184

>  <SCORE.SYSTEM.POLAR>
-3.14226

>  <SCORE.SYSTEM.REPUL>
0.0248681

>  <SCORE.SYSTEM.VDW>
-3.02833

>  <SCORE.SYSTEM.norm>
-0.435777

>  <SCORE.heavy>
28

>  <SCORE.norm>
-0.945012

$$$$
DPC.pdb
  rDOCK(R)          3D
libRbt.so/2013.1/901 2013/11/27
 32 33  0  0  0  0  0  0  0  0999 V2000
   -5.1548   62.7865   -5.3840 C   0  0  0  0  0  0
   -6.2504   62.3494   -5.7165 O   0  0  0  0  0  0
   -5.0385   63.3919   -4.3270 O   0  0  0  0  0  0
   -3.9778   62.4625   -6.2099 C   0  0  0  0  0  0
   -2.7584   62.8931   -5.8695 C   0  0  0  0  0  0
   -1.5535   62.5120   -6.6860 C   0  0  0  0  0  0
   -1.9406   61.9747   -8.0613 C   0  0  0  0  0  0
   -0.8155   61.2360   -8.6228 N   0  0  0  0  0  0
   -0.4911   61.2134   -9.9247 C   0  0  0  0  0  0
   -1.1666   61.7940  -10.7571 O   0  0  0  0  0  0
    0.7971   60.4580  -10.2997 C   0  0  0  0  0  0
   -3.1309   61.0304   -7.9101 C   0  0  0  0  0  0
   -4.1957   61.6707   -7.2598 O   0  0  0  0  0  0
   -3.6790   60.6815   -9.2755 C   0  0  0  0  0  0
   -3.9469   61.4651   -9.7807 O   0  0  0  0  0  0
   -3.5963   59.4374   -9.7269 N   0  0  0  0  0  0
   -4.0741   59.2091  -11.1087 C   0  0  0  0  0  0
   -2.9248   58.9904  -12.0976 C   0  0  0  0  0  0
   -2.4686   57.5478  -12.0059 C   0  0  0  0  0  0
   -3.3199   56.5012  -12.4257 C   0  0  0  0  0  0
   -1.2109   57.2283  -11.4743 C   0  0  0  0  0  0
   -2.9310   55.1579  -12.2799 C   0  0  0  0  0  0
   -0.8223   55.8928  -11.3296 C   0  0  0  0  0  0
   -1.6780   54.8529  -11.7176 C   0  0  0  0  0  0
   -3.1394   58.3038   -8.9260 C   0  0  0  0  0  0
   -1.6313   58.3636   -8.6289 C   0  0  0  0  0  0
   -1.0700   57.1587   -7.8509 C   0  0  0  0  0  0
   -0.7022   63.6624   -6.8317 N   0  0  0  0  0  0
   -5.8003   63.6199   -3.8315 H   0  0  0  0  0  0
   -0.2540   60.7171   -8.0026 H   0  0  0  0  0  0
   -1.1985   64.3897   -7.3466 H   0  0  0  0  0  0
    0.1407   63.3993   -7.3423 H   0  0  0  0  0  0
  1  2  2  0  0  0
  1  3  1  0  0  0
  1  4  1  0  0  0
  3 29  1  0  0  0
  4  5  2  0  0  0
  4 13  1  0  0  0
  5  6  1  0  0  0
  6  7  1  0  0  0
  6 28  1  0  0  0
  7  8  1  0  0  0
  7 12  1  0  0  0
  8  9  1  0  0  0
  8 30  1  0  0  0
  9 10  2  0  0  0
  9 11  1  0  0  0
 12 13  1  0  0  0
 12 14  1  0  0  0
 14 15  2  0  0  0
 14 16  1  0  0  0
 16 17  1  0  0  0
 16 25  1  0  0  0
 17 18  1  0  0  0
 18 19  1  0  0  0
 19 20  2  0  0  0
 19 21  1  0  0  0
 20 22  1  0  0  0
 21 23  2  0  0  0
 22 24  2  0  0  0
 23 24  1  0  0  0
 25 26  1  0  0  0
 26 27  1  0  0  0
 28 31  1  0  0  0
 28 32  1  0  0  0
M  END
>  <CHROM.0>
66.14444512,-67.81653592,-61.03597488,172.45123621,-29.08377704,138.34274576
36.15693280,-14.14970074,-175.81602431

>  <CHROM.1>
-8.17375478,-178.52681323,-62.96481500,-144.38671919,-57.69789760,106.20897860
-70.50539405,81.43558598,67.10470808,-176.90353021,-2.61609146,60.09383797
-8.95118314,1.80170551,0.33913269,0.65905901

>  <FORMUL>
      DPC    C20 H27 N3 O5

>  <HET>
 DPC  A 466      28

>  <HETNAM>
     DPC 5-ACETYLAMINO-4-AMINO-6-(PHENETHYL-PROPYL-CARBAMOYL)-5,
   2 DPC 6-DIHYDRO-4H-PYRAN-2-CARBOXYLIC ACID

>  <Name>
DPC.pdb

>  <RI>
0

>  <Rbt.Current_Directory>
/home/malgorzata/Desktop/rDOCK_IFD/test11/IFD

>  <Rbt.Executable>
rbdock ($Id: //depot/dev/client3/rdock/2013.1/src/exe/rbdock.cxx#4 $)

>  <Rbt.Library>
libRbt.so (2013.1, Build901 2013/11/27)

>  <Rbt.Parameter_File>
/home/malgorzata/Desktop/rDock_2013.1_src/data/scripts/hard_docking.prm

>  <Rbt.Receptor>
cavity.prm

>  <SCORE>
-12.0438

>  <SCORE.INTER>
-1.67158

>  <SCORE.INTER.CONST>
1

>  <SCORE.INTER.POLAR>
-0.38164

>  <SCORE.INTER.REPUL>
6.30005e-05

>  <SCORE.INTER.ROT>
9

>  <SCORE.INTER.VDW>
-14.7743

>  <SCORE.INTER.norm>
-0.0596992

>  <SCORE.INTRA>
-1.7893

>  <SCORE.INTRA.DIHEDRAL>
1.14728

>  <SCORE.INTRA.DIHEDRAL.0>
7.68839

>  <SCORE.INTRA.POLAR>
0

>  <SCORE.INTRA.POLAR.0>
0

>  <SCORE.INTRA.REPUL>
0

>  <SCORE.INTRA.REPUL.0>
0

>  <SCORE.INTRA.VDW>
-2.36294

>  <SCORE.INTRA.VDW.0>
-2.73227

>  <SCORE.INTRA.norm>
-0.0639035

>  <SCORE.RESTR>
0

>  <SCORE.RESTR.CAVITY>
0

>  <SCORE.RESTR.norm>
0

>  <SCORE.SYSTEM>
-8.58289

>  <SCORE.SYSTEM.CONST>
0

>  <SCORE.SYSTEM.DIHEDRAL>
2.9977

>  <SCORE.SYSTEM.POLAR>
-2.47262

>  <SCORE.SYSTEM.REPUL>
0.0944264

>  <SCORE.SYSTEM.VDW>
-2.14697

>  <SCORE.SYSTEM.norm>
-0.306532

>  <SCORE.heavy>
28

>  <SCORE.norm>
-0.430135

$$$$
DPC.pdb
  rDOCK(R)          3D
libRbt.so/2013.1/901 2013/11/27
 32 33  0  0  0  0  0  0  0  0999 V2000
   -0.0298   62.2956  -10.3909 C   0  0  0  0  0  0
    0.5619   62.9878  -11.2110 O   0  0  0  0  0  0
    0.3346   62.2939   -9.2228 O   0  0  0  0  0  0
   -1.2462   61.5766  -10.8104 C   0  0  0  0  0  0
   -1.6265   61.5567  -12.0922 C   0  0  0  0  0  0
   -2.8378   60.7745  -12.5220 C   0  0  0  0  0  0
   -3.7257   60.3982  -11.3388 C   0  0  0  0  0  0
   -4.6139   59.3102  -11.7314 N   0  0  0  0  0  0
   -4.2032   58.1096  -12.1677 C   0  0  0  0  0  0
   -3.0191   57.8576  -12.3109 O   0  0  0  0  0  0
   -5.2998   57.0612  -12.4308 C   0  0  0  0  0  0
   -2.8439   59.9294  -10.1837 C   0  0  0  0  0  0
   -1.8908   60.9047   -9.8566 O   0  0  0  0  0  0
   -3.6803   59.7859   -8.9322 C   0  0  0  0  0  0
   -3.5542   58.9285   -8.4962 O   0  0  0  0  0  0
   -4.3429   60.8295   -8.4523 N   0  0  0  0  0  0
   -5.0585   60.6194   -7.1741 C   0  0  0  0  0  0
   -4.2221   61.0335   -5.9594 C   0  0  0  0  0  0
   -2.8320   60.4454   -6.0992 C   0  0  0  0  0  0
   -1.7693   61.2339   -6.5944 C   0  0  0  0  0  0
   -2.5870   59.1043   -5.7710 C   0  0  0  0  0  0
   -0.4937   60.6762   -6.7916 C   0  0  0  0  0  0
   -1.3186   58.5485   -5.9657 C   0  0  0  0  0  0
   -0.2712   59.3212   -6.4852 C   0  0  0  0  0  0
   -4.4578   62.1138   -9.1396 C   0  0  0  0  0  0
   -3.3907   63.1230   -8.6822 C   0  0  0  0  0  0
   -3.7400   63.9101   -7.4053 C   0  0  0  0  0  0
   -3.5887   61.5548  -13.4690 N   0  0  0  0  0  0
    1.0749   62.8058   -8.9623 H   0  0  0  0  0  0
   -5.5839   59.4678  -11.6720 H   0  0  0  0  0  0
   -3.9903   62.3659  -12.9986 H   0  0  0  0  0  0
   -4.3375   60.9843  -13.8619 H   0  0  0  0  0  0
  1  2  2  0  0  0
  1  3  1  0  0  0
  1  4  1  0  0  0
  3 29  1  0  0  0
  4  5  2  0  0  0
  4 13  1  0  0  0
  5  6  1  0  0  0
  6  7  1  0  0  0
  6 28  1  0  0  0
  7  8  1  0  0  0
  7 12  1  0  0  0
  8  9  1  0  0  0
  8 30  1  0  0  0
  9 10  2  0  0  0
  9 11  1  0  0  0
 12 13  1  0  0  0
 12 14  1  0  0  0
 14 15  2  0  0  0
 14 16  1  0  0  0
 16 17  1  0  0  0
 16 25  1  0  0  0
 17 18  1  0  0  0
 18 19  1  0  0  0
 19 20  2  0  0  0
 19 21  1  0  0  0
 20 22  1  0  0  0
 21 23  2  0  0  0
 22 24  2  0  0  0
 23 24  1  0  0  0
 25 26  1  0  0  0
 26 27  1  0  0  0
 28 31  1  0  0  0
 28 32  1  0  0  0
M  END
>  <CHROM.0>
130.86647941,179.91575141,-61.03597488,-78.26545433,-172.79245712,127.03280778
-79.84281727,-162.34694547,85.59715510

>  <CHROM.1>
-1.34097152,7.10098375,-67.78802622,59.26515732,129.86085262,93.99225135
-94.72269823,-47.44276368,98.47914120,-84.15194409,-2.71519457,60.60308738
-9.40475433,-1.24884427,-0.77912548,-1.54618038

>  <FORMUL>
      DPC    C20 H27 N3 O5

>  <HET>
 DPC  A 466      28

>  <HETNAM>
     DPC 5-ACETYLAMINO-4-AMINO-6-(PHENETHYL-PROPYL-CARBAMOYL)-5,
   2 DPC 6-DIHYDRO-4H-PYRAN-2-CARBOXYLIC ACID

>  <Name>
DPC.pdb

>  <RI>
0

>  <Rbt.Current_Directory>
/home/malgorzata/Desktop/rDOCK_IFD/test11/IFD

>  <Rbt.Executable>
rbdock ($Id: //depot/dev/client3/rdock/2013.1/src/exe/rbdock.cxx#4 $)

>  <Rbt.Library>
libRbt.so (2013.1, Build901 2013/11/27)

>  <Rbt.Parameter_File>
/home/malgorzata/Desktop/rDock_2013.1_src/data/scripts/hard_docking.prm

>  <Rbt.Receptor>
cavity.prm

>  <SCORE>
-12.4736

>  <SCORE.INTER>
1.551

>  <SCORE.INTER.CONST>
1

>  <SCORE.INTER.POLAR>
0

>  <SCORE.INTER.REPUL>
0.0599788

>  <SCORE.INTER.ROT>
9

>  <SCORE.INTER.VDW>
-13.1489

>  <SCORE.INTER.norm>
0.055393

>  <SCORE.INTRA>
-2.49313

>  <SCORE.INTRA.DIHEDRAL>
0.464673

>  <SCORE.INTRA.DIHEDRAL.0>
7.68839

>  <SCORE.INTRA.POLAR>
0

>  <SCORE.INTRA.POLAR.0>
0

>  <SCORE.INTRA.REPUL>
0

>  <SCORE.INTRA.REPUL.0>
0

>  <SCORE.INTRA.VDW>
-2.72546

>  <SCORE.INTRA.VDW.0>
-2.73227

>  <SCORE.INTRA.norm>
-0.0890403

>  <SCORE.RESTR>
0

>  <SCORE.RESTR.CAVITY>
0

>  <SCORE.RESTR.norm>
0

>  <SCORE.SYSTEM>
-11.5315

>  <SCORE.SYSTEM.CONST>
0

>  <SCORE.SYSTEM.DIHEDRAL>
4.12656

>  <SCORE.SYSTEM.POLAR>
-4.55271

>  <SCORE.SYSTEM.REPUL>
0.395941

>  <SCORE.SYSTEM.VDW>
-0.0952378

>  <SCORE.SYSTEM.norm>
-0.411838

>  <SCORE.heavy>
28

>  <SCORE.norm>
-0.445485

$$$$
DPC.pdb
  rDOCK(R)          3D
libRbt.so/2013.1/901 2013/11/27
 32 33  0  0  0  0  0  0  0  0999 V2000
   -2.6617   57.4308  -12.7958 C   0  0  0  0  0  0
   -3.2124   58.5256  -12.8131 O   0  0  0  0  0  0
   -2.6859   56.7237  -13.7941 O   0  0  0  0  0  0
   -1.8762   57.0469  -11.6092 C   0  0  0  0  0  0
   -1.5111   55.7765  -11.4069 C   0  0  0  0  0  0
   -0.6619   55.4006  -10.2230 C   0  0  0  0  0  0
   -0.6408   56.4978   -9.1621 C   0  0  0  0  0  0
    0.4976   56.2871   -8.2754 N   0  0  0  0  0  0
    1.7795   56.2656   -8.6714 C   0  0  0  0  0  0
    2.0825   56.3809   -9.8467 O   0  0  0  0  0  0
    2.8400   56.1348   -7.5628 C   0  0  0  0  0  0
   -0.4926   57.8529   -9.8500 C   0  0  0  0  0  0
   -1.5036   58.0412  -10.8034 O   0  0  0  0  0  0
   -0.7132   58.9599   -8.8439 C   0  0  0  0  0  0
   -1.5559   58.8715   -8.3715 O   0  0  0  0  0  0
    0.2650   59.8115   -8.5674 N   0  0  0  0  0  0
   -0.0110   60.8029   -7.5040 C   0  0  0  0  0  0
   -0.7444   62.0398   -8.0320 C   0  0  0  0  0  0
   -2.0799   61.6090   -8.6051 C   0  0  0  0  0  0
   -3.1740   61.3491   -7.7496 C   0  0  0  0  0  0
   -2.2408   61.4306   -9.9867 C   0  0  0  0  0  0
   -4.3951   60.8831   -8.2681 C   0  0  0  0  0  0
   -3.4549   60.9681  -10.5039 C   0  0  0  0  0  0
   -4.5315   60.6811   -9.6537 C   0  0  0  0  0  0
    1.5341   59.8641   -9.2897 C   0  0  0  0  0  0
    1.3773   60.4234  -10.7141 C   0  0  0  0  0  0
    1.1095   61.9379  -10.7959 C   0  0  0  0  0  0
   -1.1646   54.1787   -9.6539 N   0  0  0  0  0  0
   -2.2624   55.8879  -13.7865 H   0  0  0  0  0  0
    0.3125   56.1511   -7.3181 H   0  0  0  0  0  0
   -0.5418   53.8698   -8.9075 H   0  0  0  0  0  0
   -1.2111   53.4607  -10.3769 H   0  0  0  0  0  0
  1  2  2  0  0  0
  1  3  1  0  0  0
  1  4  1  0  0  0
  3 29  1  0  0  0
  4  5  2  0  0  0
  4 13  1  0  0  0
  5  6  1  0  0  0
  6  7  1  0  0  0
  6 28  1  0  0  0
  7  8  1  0  0  0
  7 12  1  0  0  0
  8  9  1  0  0  0
  8 30  1  0  0  0
  9 10  2  0  0  0
  9 11  1  0  0  0
 12 13  1  0  0  0
 12 14  1  0  0  0
 14 15  2  0  0  0
 14 16  1  0  0  0
 16 17  1  0  0  0
 16 25  1  0  0  0
 17 18  1  0  0  0
 18 19  1  0  0  0
 19 20  2  0  0  0
 19 21  1  0  0  0
 20 22  1  0  0  0
 21 23  2  0  0  0
 22 24  2  0  0  0
 23 24  1  0  0  0
 25 26  1  0  0  0
 26 27  1  0  0  0
 28 31  1  0  0  0
 28 32  1  0  0  0
M  END
>  <CHROM.0>
-37.24748783,57.20667690,-61.03597488,-75.54762240,-173.05564134,-33.04568241
149.28547369,-32.92143745,77.76784601

>  <CHROM.1>
179.69108745,164.89808221,174.59884318,59.77876575,-53.80929450,-84.75531540
71.00312413,61.20885847,79.44244367,72.49740506,-0.95301504,58.59042031,-9.79162029
1.06825182,0.58338995,-2.70068806

>  <FORMUL>
      DPC    C20 H27 N3 O5

>  <HET>
 DPC  A 466      28

>  <HETNAM>
     DPC 5-ACETYLAMINO-4-AMINO-6-(PHENETHYL-PROPYL-CARBAMOYL)-5,
   2 DPC 6-DIHYDRO-4H-PYRAN-2-CARBOXYLIC ACID

>  <Name>
DPC.pdb

>  <RI>
0

>  <Rbt.Current_Directory>
/home/malgorzata/Desktop/rDOCK_IFD/test11/IFD

>  <Rbt.Executable>
rbdock ($Id: //depot/dev/client3/rdock/2013.1/src/exe/rbdock.cxx#4 $)

>  <Rbt.Library>
libRbt.so (2013.1, Build901 2013/11/27)

>  <Rbt.Parameter_File>
/home/malgorzata/Desktop/rDock_2013.1_src/data/scripts/hard_docking.prm

>  <Rbt.Receptor>
cavity.prm

>  <SCORE>
-16.0626

>  <SCORE.INTER>
-9.85784

>  <SCORE.INTER.CONST>
1

>  <SCORE.INTER.POLAR>
-3.43467

>  <SCORE.INTER.REPUL>
0.475697

>  <SCORE.INTER.ROT>
9

>  <SCORE.INTER.VDW>
-14.9584

>  <SCORE.INTER.norm>
-0.352066

>  <SCORE.INTRA>
-1.83225

>  <SCORE.INTRA.DIHEDRAL>
0.951065

>  <SCORE.INTRA.DIHEDRAL.0>
7.68839

>  <SCORE.INTRA.POLAR>
0

>  <SCORE.INTRA.POLAR.0>
0

>  <SCORE.INTRA.REPUL>
0

>  <SCORE.INTRA.REPUL.0>
0

>  <SCORE.INTRA.VDW>
-2.30778

>  <SCORE.INTRA.VDW.0>
-2.73227

>  <SCORE.INTRA.norm>
-0.0654375

>  <SCORE.RESTR>
0

>  <SCORE.RESTR.CAVITY>
0

>  <SCORE.RESTR.norm>
0

>  <SCORE.SYSTEM>
-4.37251

>  <SCORE.SYSTEM.CONST>
0

>  <SCORE.SYSTEM.DIHEDRAL>
4.69378

>  <SCORE.SYSTEM.POLAR>
-2.3786

>  <SCORE.SYSTEM.REPUL>
0.494468

>  <SCORE.SYSTEM.VDW>
-1.10448

>  <SCORE.SYSTEM.norm>
-0.156161

>  <SCORE.heavy>
28

>  <SCORE.norm>
-0.573664

$$$$
DPC.pdb
  rDOCK(R)          3D
libRbt.so/2013.1/901 2013/11/27
 32 33  0  0  0  0  0  0  0  0999 V2000
   -1.7224   62.5794   -4.0599 C   0  0  0  0  0  0
   -0.5303   62.4806   -4.3267 O   0  0  0  0  0  0
   -2.0714   63.1894   -3.0582 O   0  0  0  0  0  0
   -2.7131   62.0651   -5.0224 C   0  0  0  0  0  0
   -3.9719   62.5163   -5.0220 C   0  0  0  0  0  0
   -4.9632   62.0281   -6.0432 C   0  0  0  0  0  0
   -4.4895   60.7539   -6.7374 C   0  0  0  0  0  0
   -5.2400   60.5732   -7.9747 N   0  0  0  0  0  0
   -5.1160   61.3490   -9.0625 C   0  0  0  0  0  0
   -4.3735   62.3159   -9.0709 O   0  0  0  0  0  0
   -5.9219   60.9262  -10.3045 C   0  0  0  0  0  0
   -3.0055   60.8903   -7.0702 C   0  0  0  0  0  0
   -2.2618   61.1881   -5.9191 O   0  0  0  0  0  0
   -2.4642   59.5565   -7.5333 C   0  0  0  0  0  0
   -2.5408   58.8675   -6.8547 O   0  0  0  0  0  0
   -2.1129   59.3855   -8.8005 N   0  0  0  0  0  0
   -1.6824   58.0222   -9.1824 C   0  0  0  0  0  0
   -2.6100   57.3843  -10.2213 C   0  0  0  0  0  0
   -1.8361   56.3280  -10.9848 C   0  0  0  0  0  0
   -1.1417   55.3110  -10.2922 C   0  0  0  0  0  0
   -1.7706   56.3625  -12.3852 C   0  0  0  0  0  0
   -0.3658   54.3688  -10.9902 C   0  0  0  0  0  0
   -1.0001   55.4255  -13.0808 C   0  0  0  0  0  0
   -0.2864   54.4345  -12.3933 C   0  0  0  0  0  0
   -2.0615   60.4607   -9.7887 C   0  0  0  0  0  0
   -0.6495   61.0516   -9.9417 C   0  0  0  0  0  0
   -0.5232   62.1832  -10.9787 C   0  0  0  0  0  0
   -6.2262   61.7925   -5.3960 N   0  0  0  0  0  0
   -1.4273   63.5555   -2.4845 H   0  0  0  0  0  0
   -5.8834   59.8291   -8.0146 H   0  0  0  0  0  0
   -6.8831   61.3944   -6.0672 H   0  0  0  0  0  0
   -6.5958   62.6742   -5.0405 H   0  0  0  0  0  0
  1  2  2  0  0  0
  1  3  1  0  0  0
  1  4  1  0  0  0
  3 29  1  0  0  0
  4  5  2  0  0  0
  4 13  1  0  0  0
  5  6  1  0  0  0
  6  7  1  0  0  0
  6 28  1  0  0  0
  7  8  1  0  0  0
  7 12  1  0  0  0
  8  9  1  0  0  0
  8 30  1  0  0  0
  9 10  2  0  0  0
  9 11  1  0  0  0
 12 13  1  0  0  0
 12 14  1  0  0  0
 14 15  2  0  0  0
 14 16  1  0  0  0
 16 17  1  0  0  0
 16 25  1  0  0  0
 17 18  1  0  0  0
 18 19  1  0  0  0
 19 20  2  0  0  0
 19 21  1  0  0  0
 20 22  1  0  0  0
 21 23  2  0  0  0
 22 24  2  0  0  0
 23 24  1  0  0  0
 25 26  1  0  0  0
 26 27  1  0  0  0
 28 31  1  0  0  0
 28 32  1  0  0  0
M  END
>  <CHROM.0>
70.27658324,61.79612769,-61.03597488,64.77146593,-172.46116398,-138.43441119
-63.92486256,-30.82879916,-173.42467988

>  <CHROM.1>
-1.92231677,-157.63632180,-175.73780486,69.44878239,-61.01057231,116.68838577
95.57724497,155.71239531,52.81680713,179.49444798,-2.65611680,59.88094416
-8.22446178,-1.83576668,0.48082084,-2.22466739

>  <FORMUL>
      DPC    C20 H27 N3 O5

>  <HET>
 DPC  A 466      28

>  <HETNAM>
     DPC 5-ACETYLAMINO-4-AMINO-6-(PHENETHYL-PROPYL-CARBAMOYL)-5,
   2 DPC 6-DIHYDRO-4H-PYRAN-2-CARBOXYLIC ACID

>  <Name>
DPC.pdb

>  <RI>
0

>  <Rbt.Current_Directory>
/home/malgorzata/Desktop/rDOCK_IFD/test11/IFD

>  <Rbt.Executable>
rbdock ($Id: //depot/dev/client3/rdock/2013.1/src/exe/rbdock.cxx#4 $)

>  <Rbt.Library>
libRbt.so (2013.1, Build901 2013/11/27)

>  <Rbt.Parameter_File>
/home/malgorzata/Desktop/rDock_2013.1_src/data/scripts/hard_docking.prm

>  <Rbt.Receptor>
cavity.prm

>  <SCORE>
-13.3024

>  <SCORE.INTER>
-8.15117

>  <SCORE.INTER.CONST>
1

>  <SCORE.INTER.POLAR>
-1.67002

>  <SCORE.INTER.REPUL>
0.240823

>  <SCORE.INTER.ROT>
9

>  <SCORE.INTER.VDW>
-18.0772

>  <SCORE.INTER.norm>
-0.291113

>  <SCORE.INTRA>
1.37415

>  <SCORE.INTRA.DIHEDRAL>
2.12065

>  <SCORE.INTRA.DIHEDRAL.0>
7.68839

>  <SCORE.INTRA.POLAR>
0

>  <SCORE.INTRA.POLAR.0>
0

>  <SCORE.INTRA.REPUL>
0

>  <SCORE.INTRA.REPUL.0>
0

>  <SCORE.INTRA.VDW>
0.313826

>  <SCORE.INTRA.VDW.0>
-2.73227

>  <SCORE.INTRA.norm>
0.0490768

>  <SCORE.RESTR>
0

>  <SCORE.RESTR.CAVITY>
0

>  <SCORE.RESTR.norm>
0

>  <SCORE.SYSTEM>
-6.52535

>  <SCORE.SYSTEM.CONST>
0

>  <SCORE.SYSTEM.DIHEDRAL>
3.49236

>  <SCORE.SYSTEM.POLAR>
-2.54006

>  <SCORE.SYSTEM.REPUL>
0.900867

>  <SCORE.SYSTEM.VDW>
-4.13966

>  <SCORE.SYSTEM.norm>
-0.233048

>  <SCORE.heavy>
28

>  <SCORE.norm>
-0.475085

$$$$
DPC.pdb
  rDOCK(R)          3D
libRbt.so/2013.1/901 2013/11/27
 32 33  0  0  0  0  0  0  0  0999 V2000
    2.4767   58.4143   -8.3161 C   0  0  0  0  0  0
    2.3350   58.6016   -7.1133 O   0  0  0  0  0  0
    3.5813   58.1311   -8.7600 O   0  0  0  0  0  0
    1.2843   58.4133   -9.1826 C   0  0  0  0  0  0
    1.0595   57.4147  -10.0431 C   0  0  0  0  0  0
   -0.1878   57.3919  -10.8843 C   0  0  0  0  0  0
   -0.8781   58.7527  -10.9218 C   0  0  0  0  0  0
   -2.2571   58.5802  -11.3637 N   0  0  0  0  0  0
   -3.1848   57.8662  -10.7078 C   0  0  0  0  0  0
   -2.9127   57.2580   -9.6868 O   0  0  0  0  0  0
   -4.6115   57.8956  -11.2862 C   0  0  0  0  0  0
   -0.8762   59.3510   -9.5169 C   0  0  0  0  0  0
    0.4280   59.4194   -9.0059 O   0  0  0  0  0  0
   -1.3327   60.7912   -9.5776 C   0  0  0  0  0  0
   -0.6857   61.3690  -10.0118 O   0  0  0  0  0  0
   -2.5692   61.1121   -9.2220 N   0  0  0  0  0  0
   -2.9554   62.5292   -9.4021 C   0  0  0  0  0  0
   -4.1226   62.6987  -10.3798 C   0  0  0  0  0  0
   -3.6965   62.1907  -11.7428 C   0  0  0  0  0  0
   -2.6326   62.8105  -12.4358 C   0  0  0  0  0  0
   -4.3710   61.1216  -12.3499 C   0  0  0  0  0  0
   -2.2769   62.3892  -13.7292 C   0  0  0  0  0  0
   -4.0177   60.7008  -13.6359 C   0  0  0  0  0  0
   -2.9824   61.3344  -14.3366 C   0  0  0  0  0  0
   -3.5144   60.1798   -8.6116 C   0  0  0  0  0  0
   -3.0603   59.7097   -7.2190 C   0  0  0  0  0  0
   -2.9538   60.8198   -6.1568 C   0  0  0  0  0  0
    0.1541   56.9794  -12.2194 N   0  0  0  0  0  0
    3.7296   58.1360   -9.6852 H   0  0  0  0  0  0
   -2.5265   59.0187  -12.2029 H   0  0  0  0  0  0
    0.1791   55.9607  -12.2646 H   0  0  0  0  0  0
    1.0703   57.3533  -12.4667 H   0  0  0  0  0  0
  1  2  2  0  0  0
  1  3  1  0  0  0
  1  4  1  0  0  0
  3 29  1  0  0  0
  4  5  2  0  0  0
  4 13  1  0  0  0
  5  6  1  0  0  0
  6  7  1  0  0  0
  6 28  1  0  0  0
  7  8  1  0  0  0
  7 12  1  0  0  0
  8  9  1  0  0  0
  8 30  1  0  0  0
  9 10  2  0  0  0
  9 11  1  0  0  0
 12 13  1  0  0  0
 12 14  1  0  0  0
 14 15  2  0  0  0
 14 16  1  0  0  0
 16 17  1  0  0  0
 16 25  1  0  0  0
 17 18  1  0  0  0
 18 19  1  0  0  0
 19 20  2  0  0  0
 19 21  1  0  0  0
 20 22  1  0  0  0
 21 23  2  0  0  0
 22 24  2  0  0  0
 23 24  1  0  0  0
 25 26  1  0  0  0
 26 27  1  0  0  0
 28 31  1  0  0  0
 28 32  1  0  0  0
M  END
>  <CHROM.0>
75.30888783,-179.60908163,-61.03597488,173.97288364,-170.39109443,136.84636691
33.19222855,-7.88237342,-54.78130901

>  <CHROM.1>
-169.16279985,-129.50008615,84.26271607,62.29482967,-69.35550555,118.61431387
65.21497216,-62.17053151,-62.63643231,63.07897882,-1.54374054,59.74653553
-10.22075190,0.32648585,-0.64746845,1.30302044

>  <FORMUL>
      DPC    C20 H27 N3 O5

>  <HET>
 DPC  A 466      28

>  <HETNAM>
     DPC 5-ACETYLAMINO-4-AMINO-6-(PHENETHYL-PROPYL-CARBAMOYL)-5,
   2 DPC 6-DIHYDRO-4H-PYRAN-2-CARBOXYLIC ACID

>  <Name>
DPC.pdb

>  <RI>
0

>  <Rbt.Current_Directory>
/home/malgorzata/Desktop/rDOCK_IFD/test11/IFD

>  <Rbt.Executable>
rbdock ($Id: //depot/dev/client3/rdock/2013.1/src/exe/rbdock.cxx#4 $)

>  <Rbt.Library>
libRbt.so (2013.1, Build901 2013/11/27)

>  <Rbt.Parameter_File>
/home/malgorzata/Desktop/rDock_2013.1_src/data/scripts/hard_docking.prm

>  <Rbt.Receptor>
cavity.prm

>  <SCORE>
-18.4546

>  <SCORE.INTER>
-9.23667

>  <SCORE.INTER.CONST>
1

>  <SCORE.INTER.POLAR>
-3.27683

>  <SCORE.INTER.REPUL>
0.0190907

>  <SCORE.INTER.ROT>
9

>  <SCORE.INTER.VDW>
-12.5909

>  <SCORE.INTER.norm>
-0.329881

>  <SCORE.INTRA>
1.22355

>  <SCORE.INTRA.DIHEDRAL>
7.03184

>  <SCORE.INTRA.DIHEDRAL.0>
7.68839

>  <SCORE.INTRA.POLAR>
0

>  <SCORE.INTRA.POLAR.0>
0

>  <SCORE.INTRA.REPUL>
0

>  <SCORE.INTRA.REPUL.0>
0

>  <SCORE.INTRA.VDW>
-2.29237

>  <SCORE.INTRA.VDW.0>
-2.73227

>  <SCORE.INTRA.norm>
0.043698

>  <SCORE.RESTR>
0

>  <SCORE.RESTR.CAVITY>
0

>  <SCORE.RESTR.norm>
0

>  <SCORE.SYSTEM>
-10.4415

>  <SCORE.SYSTEM.CONST>
0

>  <SCORE.SYSTEM.DIHEDRAL>
2.37379

>  <SCORE.SYSTEM.POLAR>
-2.66174

>  <SCORE.SYSTEM.REPUL>
0.0491861

>  <SCORE.SYSTEM.VDW>
-2.82443

>  <SCORE.SYSTEM.norm>
-0.372911

>  <SCORE.heavy>
28

>  <SCORE.norm>
-0.659094

$$$$
DPC.pdb
  rDOCK(R)          3D
libRbt.so/2013.1/901 2013/11/27
 32 33  0  0  0  0  0  0  0  0999 V2000
   -5.1448   60.2262   -6.8252 C   0  0  0  0  0  0
   -4.3638   59.5597   -6.1560 O   0  0  0  0  0  0
   -6.2641   60.4649   -6.3922 O   0  0  0  0  0  0
   -4.6704   60.8288   -8.0838 C   0  0  0  0  0  0
   -5.2926   61.8846   -8.6190 C   0  0  0  0  0  0
   -4.7699   62.5294   -9.8739 C   0  0  0  0  0  0
   -3.7791   61.6309  -10.6094 C   0  0  0  0  0  0
   -2.9971   62.4376  -11.5390 N   0  0  0  0  0  0
   -2.3770   61.9599  -12.6289 C   0  0  0  0  0  0
   -2.3915   60.7707  -12.8970 O   0  0  0  0  0  0
   -1.6910   62.9949  -13.5394 C   0  0  0  0  0  0
   -2.8378   60.9900   -9.5921 C   0  0  0  0  0  0
   -3.5618   60.3043   -8.6060 O   0  0  0  0  0  0
   -2.0136   59.9176  -10.2680 C   0  0  0  0  0  0
   -2.5614   59.2473  -10.7057 O   0  0  0  0  0  0
   -0.6978   60.0519  -10.3635 N   0  0  0  0  0  0
    0.0144   58.9996  -11.1218 C   0  0  0  0  0  0
    0.0041   57.6484  -10.4000 C   0  0  0  0  0  0
    0.2148   56.5473  -11.4201 C   0  0  0  0  0  0
   -0.8693   56.0701  -12.1904 C   0  0  0  0  0  0
    1.4785   55.9641  -11.5916 C   0  0  0  0  0  0
   -0.6959   55.0025  -13.0888 C   0  0  0  0  0  0
    1.6527   54.9028  -12.4854 C   0  0  0  0  0  0
    0.5718   54.4085  -13.2281 C   0  0  0  0  0  0
    0.0666   61.1147   -9.7145 C   0  0  0  0  0  0
    0.0955   60.9674   -8.1835 C   0  0  0  0  0  0
    0.8747   59.7469   -7.6589 C   0  0  0  0  0  0
   -5.8775   62.8452  -10.7358 N   0  0  0  0  0  0
   -6.8231   61.0657   -6.8446 H   0  0  0  0  0  0
   -2.9185   63.4014  -11.3538 H   0  0  0  0  0  0
   -6.3265   61.9822  -11.0425 H   0  0  0  0  0  0
   -5.5397   63.3603  -11.5488 H   0  0  0  0  0  0
  1  2  2  0  0  0
  1  3  1  0  0  0
  1  4  1  0  0  0
  3 29  1  0  0  0
  4  5  2  0  0  0
  4 13  1  0  0  0
  5  6  1  0  0  0
  6  7  1  0  0  0
  6 28  1  0  0  0
  7  8  1  0  0  0
  7 12  1  0  0  0
  8  9  1  0  0  0
  8 30  1  0  0  0
  9 10  2  0  0  0
  9 11  1  0  0  0
 12 13  1  0  0  0
 12 14  1  0  0  0
 14 15  2  0  0  0
 14 16  1  0  0  0
 16 17  1  0  0  0
 16 25  1  0  0  0
 17 18  1  0  0  0
 18 19  1  0  0  0
 19 20  2  0  0  0
 19 21  1  0  0  0
 20 22  1  0  0  0
 21 23  2  0  0  0
 22 24  2  0  0  0
 23 24  1  0  0  0
 25 26  1  0  0  0
 26 27  1  0  0  0
 28 31  1  0  0  0
 28 32  1  0  0  0
M  END
>  <CHROM.0>
45.02774286,-179.81545183,-61.03597488,-179.59761265,-171.47690501,136.10192939
33.85244564,-16.83187716,80.58880829

>  <CHROM.1>
171.87227758,-157.93728506,-65.22396741,-156.73382597,-55.89238977,-68.83330609
68.77194572,156.99447460,-81.76103574,67.31540484,-2.12923717,59.72008687
-10.26005622,3.09276704,0.87519577,-0.94344569

>  <FORMUL>
      DPC    C20 H27 N3 O5

>  <HET>
 DPC  A 466      28

>  <HETNAM>
     DPC 5-ACETYLAMINO-4-AMINO-6-(PHENETHYL-PROPYL-CARBAMOYL)-5,
   2 DPC 6-DIHYDRO-4H-PYRAN-2-CARBOXYLIC ACID

>  <Name>
DPC.pdb

>  <RI>
0

>  <Rbt.Current_Directory>
/home/malgorzata/Desktop/rDOCK_IFD/test11/IFD

>  <Rbt.Executable>
rbdock ($Id: //depot/dev/client3/rdock/2013.1/src/exe/rbdock.cxx#4 $)

>  <Rbt.Library>
libRbt.so (2013.1, Build901 2013/11/27)

>  <Rbt.Parameter_File>
/home/malgorzata/Desktop/rDock_2013.1_src/data/scripts/hard_docking.prm

>  <Rbt.Receptor>
cavity.prm

>  <SCORE>
-15.7761

>  <SCORE.INTER>
-5.3951

>  <SCORE.INTER.CONST>
1

>  <SCORE.INTER.POLAR>
-1.71978

>  <SCORE.INTER.REPUL>
0.110673

>  <SCORE.INTER.ROT>
9

>  <SCORE.INTER.VDW>
-14.5012

>  <SCORE.INTER.norm>
-0.192682

>  <SCORE.INTRA>
0.95332

>  <SCORE.INTRA.DIHEDRAL>
2.27712

>  <SCORE.INTRA.DIHEDRAL.0>
7.68839

>  <SCORE.INTRA.POLAR>
0

>  <SCORE.INTRA.POLAR.0>
0

>  <SCORE.INTRA.REPUL>
0

>  <SCORE.INTRA.REPUL.0>
0

>  <SCORE.INTRA.VDW>
-0.185241

>  <SCORE.INTRA.VDW.0>
-2.73227

>  <SCORE.INTRA.norm>
0.0340471

>  <SCORE.RESTR>
0

>  <SCORE.RESTR.CAVITY>
0

>  <SCORE.RESTR.norm>
0

>  <SCORE.SYSTEM>
-11.3344

>  <SCORE.SYSTEM.CONST>
0

>  <SCORE.SYSTEM.DIHEDRAL>
2.54204

>  <SCORE.SYSTEM.POLAR>
-3.34909

>  <SCORE.SYSTEM.REPUL>
0.271351

>  <SCORE.SYSTEM.VDW>
-2.57522

>  <SCORE.SYSTEM.norm>
-0.404799

>  <SCORE.heavy>
28

>  <SCORE.norm>
-0.563434

$$$$
DPC.pdb
  rDOCK(R)          3D
libRbt.so/2013.1/901 2013/11/27
 32 33  0  0  0  0  0  0  0  0999 V2000
   -6.5982   63.0880   -8.4575 C   0  0  0  0  0  0
   -7.5698   63.2615   -7.7310 O   0  0  0  0  0  0
   -6.4474   63.7914   -9.4473 O   0  0  0  0  0  0
   -5.5683   62.1154   -8.0501 C   0  0  0  0  0  0
   -5.7235   61.3676   -6.9524 C   0  0  0  0  0  0
   -4.6947   60.3372   -6.5731 C   0  0  0  0  0  0
   -3.3749   60.5477   -7.3104 C   0  0  0  0  0  0
   -2.5893   59.3206   -7.2495 N   0  0  0  0  0  0
   -1.4877   59.1562   -6.5012 C   0  0  0  0  0  0
   -1.0315   60.0693   -5.8344 O   0  0  0  0  0  0
   -0.8637   57.7486   -6.4953 C   0  0  0  0  0  0
   -3.6681   60.8796   -8.7717 C   0  0  0  0  0  0
   -4.5251   61.9853   -8.8696 O   0  0  0  0  0  0
   -2.3962   61.3275   -9.4558 C   0  0  0  0  0  0
   -2.0829   62.1872   -9.1337 O   0  0  0  0  0  0
   -1.7458   60.4971  -10.2596 N   0  0  0  0  0  0
   -0.4637   60.9891  -10.8107 C   0  0  0  0  0  0
    0.4182   59.8558  -11.3442 C   0  0  0  0  0  0
    1.0769   59.1556  -10.1723 C   0  0  0  0  0  0
    1.9250   59.8710   -9.2975 C   0  0  0  0  0  0
    0.8815   57.7836   -9.9577 C   0  0  0  0  0  0
    2.5935   59.2138   -8.2496 C   0  0  0  0  0  0
    1.5450   57.1288   -8.9153 C   0  0  0  0  0  0
    2.4100   57.8312   -8.0653 C   0  0  0  0  0  0
   -2.2536   59.1907  -10.6726 C   0  0  0  0  0  0
   -3.2049   59.2839  -11.8779 C   0  0  0  0  0  0
   -3.7694   57.9384  -12.3709 C   0  0  0  0  0  0
   -4.4762   60.3930   -5.1523 N   0  0  0  0  0  0
   -5.6753   63.7039   -9.9710 H   0  0  0  0  0  0
   -2.8886   58.5585   -7.7962 H   0  0  0  0  0  0
   -5.3749   60.3958   -4.6700 H   0  0  0  0  0  0
   -3.9632   61.2436   -4.9204 H   0  0  0  0  0  0
  1  2  2  0  0  0
  1  3  1  0  0  0
  1  4  1  0  0  0
  3 29  1  0  0  0
  4  5  2  0  0  0
  4 13  1  0  0  0
  5  6  1  0  0  0
  6  7  1  0  0  0
  6 28  1  0  0  0
  7  8  1  0  0  0
  7 12  1  0  0  0
  8  9  1  0  0  0
  8 30  1  0  0  0
  9 10  2  0  0  0
  9 11  1  0  0  0
 12 13  1  0  0  0
 12 14  1  0  0  0
 14 15  2  0  0  0
 14 16  1  0  0  0
 16 17  1  0  0  0
 16 25  1  0  0  0
 17 18  1  0  0  0
 18 19  1  0  0  0
 19 20  2  0  0  0
 19 21  1  0  0  0
 20 22  1  0  0  0
 21 23  2  0  0  0
 22 24  2  0  0  0
 23 24  1  0  0  0
 25 26  1  0  0  0
 26 27  1  0  0  0
 28 31  1  0  0  0
 28 32  1  0  0  0
M  END
>  <CHROM.0>
93.17903041,60.56224619,-61.03597488,171.96911147,-23.87872581,139.61849720
149.90175068,-32.35360973,87.83383509

>  <CHROM.1>
175.60814796,4.27815830,48.21571811,-107.71070498,-68.68348951,161.86677102
83.94601366,-77.55862159,-60.03527151,179.59813209,-2.36280633,60.27157138
-8.70112651,3.02805045,-0.49524066,1.64749135

>  <FORMUL>
      DPC    C20 H27 N3 O5

>  <HET>
 DPC  A 466      28

>  <HETNAM>
     DPC 5-ACETYLAMINO-4-AMINO-6-(PHENETHYL-PROPYL-CARBAMOYL)-5,
   2 DPC 6-DIHYDRO-4H-PYRAN-2-CARBOXYLIC ACID

>  <Name>
DPC.pdb

>  <RI>
0

>  <Rbt.Current_Directory>
/home/malgorzata/Desktop/rDOCK_IFD/test11/IFD

>  <Rbt.Executable>
rbdock ($Id: //depot/dev/client3/rdock/2013.1/src/exe/rbdock.cxx#4 $)

>  <Rbt.Library>
libRbt.so (2013.1, Build901 2013/11/27)

>  <Rbt.Parameter_File>
/home/malgorzata/Desktop/rDock_2013.1_src/data/scripts/hard_docking.prm

>  <Rbt.Receptor>
cavity.prm

>  <SCORE>
-14.7284

>  <SCORE.INTER>
-10.2168

>  <SCORE.INTER.CONST>
1

>  <SCORE.INTER.POLAR>
-2.20681

>  <SCORE.INTER.REPUL>
0.0347655

>  <SCORE.INTER.ROT>
9

>  <SCORE.INTER.VDW>
-17.2875

>  <SCORE.INTER.norm>
-0.364887

>  <SCORE.INTRA>
0.829158

>  <SCORE.INTRA.DIHEDRAL>
0.153204

>  <SCORE.INTRA.DIHEDRAL.0>
7.68839

>  <SCORE.INTRA.POLAR>
-0.0191846

>  <SCORE.INTRA.POLAR.0>
0

>  <SCORE.INTRA.REPUL>
0

>  <SCORE.INTRA.REPUL.0>
0

>  <SCORE.INTRA.VDW>
0.817784

>  <SCORE.INTRA.VDW.0>
-2.73227

>  <SCORE.INTRA.norm>
0.0296128

>  <SCORE.RESTR>
0

>  <SCORE.RESTR.CAVITY>
0

>  <SCORE.RESTR.norm>
0

>  <SCORE.SYSTEM>
-5.34076

>  <SCORE.SYSTEM.CONST>
0

>  <SCORE.SYSTEM.DIHEDRAL>
3.80396

>  <SCORE.SYSTEM.POLAR>
-1.85298

>  <SCORE.SYSTEM.REPUL>
0.28552

>  <SCORE.SYSTEM.VDW>
-2.37022

>  <SCORE.SYSTEM.norm>
-0.190741

>  <SCORE.heavy>
28

>  <SCORE.norm>
-0.526015

$$$$
