@<TRIPOS>MOLECULE
pose6.pdb
 29 31 0 0 0
SMALL
GASTEIGER

@<TRIPOS>ATOM
      1 Br1        -2.7840   34.3750   13.0490 Br      1  LIG1       -0.0308
      2  O1        -5.7130   29.8930   13.0890 O.2     1  LIG1       -0.2686
      3  O2        -2.3370   28.8270    6.6700 O.2     1  LIG1       -0.2454
      4  N1        -3.9490   31.8950   12.6390 N.ar    1  LIG1       -0.3450
      5  N2        -4.7220   28.4890   11.5750 N.am    1  LIG1       -0.3098
      6  N3        -0.8860   30.5950    6.4250 N.am    1  LIG1       -0.0010
      7  N4        -1.4170   31.7660    8.2660 N.pl3   1  LIG1       -0.2020
      8  N5         0.2420   32.6140    6.8750 N.pl3   1  LIG1       -0.2529
      9  C1        -3.1870   32.8430   12.0910 C.ar    1  LIG1        0.0841
     10  C2        -2.8000   32.4980   10.8290 C.ar    1  LIG1       -0.0216
     11  C3        -3.3610   31.2170   10.5770 C.ar    1  LIG1        0.0124
     12  C4        -4.0900   30.8800   11.7590 C.ar    1  LIG1        0.1102
     13  C5        -4.8900   29.7210   12.1800 C.2     1  LIG1        0.2610
     14  C6        -3.7970   28.1230   10.4890 C.3     1  LIG1        0.0160
     15  C7        -3.9370   28.9960    9.2550 C.3     1  LIG1       -0.0081
     16  C8        -3.1470   30.2980    9.3510 C.2     1  LIG1        0.0066
     17  C9        -2.2370   30.6300    8.3420 C.2     1  LIG1        0.1770
     18  C10       -1.8540   29.8980    7.0680 C.2     1  LIG1        0.3697
     19  C11       -0.6470   31.6840    7.1650 C.2     1  LIG1        0.3655
     20  H1        -4.3440   31.9300   13.5400 H       1  LIG1        0.1665
     21  H2        -5.2950   27.7640   11.9130 H       1  LIG1        0.1491
     22  H3        -1.4060   32.5070    8.9150 H       1  LIG1        0.2512
     23  H4         0.7940   32.5320    6.0630 H       1  LIG1        0.2410
     24  H5         0.3540   33.3910    7.4690 H       1  LIG1        0.2410
     25 H          -2.2165   33.0558   10.1860 H       1  LIG1        0.0650
     26 H          -3.9877   27.1080   10.2093 H       1  LIG1        0.0465
     27 H          -2.8035   28.2613   10.8615 H       1  LIG1        0.0465
     28 H          -4.9716   29.2343    9.1219 H       1  LIG1        0.0330
     29 H          -3.5436   28.4441    8.4270 H       1  LIG1        0.0330
@<TRIPOS>BOND
     1     1     9    1
     2     2    13    2
     3     3    18    2
     4     4     9   ar
     5     4    12   ar
     6     4    20    1
     7     5    13   am
     8     5    14    1
     9     5    21    1
    10     6    18    1
    11     6    19    2
    12     7    17    1
    13     7    19    1
    14     7    22    1
    15     8    19    1
    16     8    23    1
    17     8    24    1
    18     9    10   ar
    19    10    11   ar
    20    11    12   ar
    21    11    16    1
    22    12    13    1
    23    14    15    1
    24    15    16    1
    25    16    17    2
    26    17    18    1
    27    10    25    1
    28    14    26    1
    29    14    27    1
    30    15    28    1
    31    15    29    1
