@<TRIPOS>MOLECULE
pose0.pdb
 29 31 0 0 0
SMALL
GASTEIGER

@<TRIPOS>ATOM
      1 Br1        -3.1490   34.1930   12.9840 Br      1  LIG1       -0.0308
      2  O1        -5.7820   29.5710   12.3610 O.2     1  LIG1       -0.2686
      3  O2        -1.2520   28.9250    6.6340 O.2     1  LIG1       -0.2454
      4  N1        -4.0800   31.6750   12.2980 N.ar    1  LIG1       -0.3450
      5  N2        -4.4570   28.2790   11.0120 N.am    1  LIG1       -0.3098
      6  N3         0.1180   30.7710    6.7080 N.am    1  LIG1       -0.0010
      7  N4        -0.8000   31.8420    8.4550 N.pl3   1  LIG1       -0.2020
      8  N5         1.0320   32.8250    7.4140 N.pl3   1  LIG1       -0.2529
      9  C1        -3.2870   32.6810   11.9250 C.ar    1  LIG1        0.0841
     10  C2        -2.6610   32.4040   10.7450 C.ar    1  LIG1       -0.0216
     11  C3        -3.0950   31.1080   10.3580 C.ar    1  LIG1        0.0124
     12  C4        -4.0040   30.6890   11.3780 C.ar    1  LIG1        0.1102
     13  C5        -4.8000   29.4770   11.6120 C.2     1  LIG1        0.2610
     14  C6        -3.3330   28.0010   10.1020 C.3     1  LIG1        0.0160
     15  C7        -3.2980   28.9130    8.8890 C.3     1  LIG1       -0.0081
     16  C8        -2.6120   30.2480    9.1650 C.2     1  LIG1        0.0066
     17  C9        -1.5550   30.6650    8.3480 C.2     1  LIG1        0.1770
     18  C10       -0.9090   30.0030    7.1440 C.2     1  LIG1        0.3697
     19  C11        0.1590   31.8410    7.5110 C.2     1  LIG1        0.3655
     20  H1        -4.6330   31.6550   13.1120 H       1  LIG1        0.1665
     21  H2        -5.0400   27.5130   11.2200 H       1  LIG1        0.1491
     22  H3        -0.9480   32.5560    9.1170 H       1  LIG1        0.2512
     23  H4         1.7240   32.8020    6.7140 H       1  LIG1        0.2410
     24  H5         0.9910   33.5830    8.0410 H       1  LIG1        0.2410
     25 H          -2.0033   33.0143   10.2352 H       1  LIG1        0.0650
     26 H          -3.4135   26.9893    9.7632 H       1  LIG1        0.0465
     27 H          -2.4317   28.1734   10.6523 H       1  LIG1        0.0465
     28 H          -4.3036   29.1046    8.5775 H       1  LIG1        0.0330
     29 H          -2.7324   28.4139    8.1301 H       1  LIG1        0.0330
@<TRIPOS>BOND
     1     1     9    1
     2     2    13    2
     3     3    18    2
     4     4     9   ar
     5     4    12   ar
     6     4    20    1
     7     5    13   am
     8     5    14    1
     9     5    21    1
    10     6    18    1
    11     6    19    2
    12     7    17    1
    13     7    19    1
    14     7    22    1
    15     8    19    1
    16     8    23    1
    17     8    24    1
    18     9    10   ar
    19    10    11   ar
    20    11    12   ar
    21    11    16    1
    22    12    13    1
    23    14    15    1
    24    15    16    1
    25    16    17    2
    26    17    18    1
    27    10    25    1
    28    14    26    1
    29    14    27    1
    30    15    28    1
    31    15    29    1
