@<TRIPOS>MOLECULE
pose1.pdb
 29 31 0 0 0
SMALL
GASTEIGER

@<TRIPOS>ATOM
      1 Br1        -5.7350   33.0590   13.8150 Br      1  LIG1       -0.0308
      2  O1        -1.7210   32.6460   10.2940 O.2     1  LIG1       -0.2686
      3  O2        -3.2160   25.5000   10.9530 O.2     1  LIG1       -0.2454
      4  N1        -3.8490   32.3030   11.9310 N.ar    1  LIG1       -0.3450
      5  N2        -1.9260   30.5650    9.3600 N.am    1  LIG1       -0.3098
      6  N3        -5.0270   25.3670   12.3650 N.am    1  LIG1       -0.0010
      7  N4        -5.2550   27.5410   12.8790 N.pl3   1  LIG1       -0.2020
      8  N5        -6.7550   26.0340   13.8210 N.pl3   1  LIG1       -0.2529
      9  C1        -4.7170   31.8570   12.8410 C.ar    1  LIG1        0.0841
     10  C2        -4.7130   30.4950   12.9020 C.ar    1  LIG1       -0.0216
     11  C3        -3.7680   30.0560   11.9360 C.ar    1  LIG1        0.0124
     12  C4        -3.2410   31.2470   11.3490 C.ar    1  LIG1        0.1102
     13  C5        -2.2490   31.5260   10.3000 C.2     1  LIG1        0.2610
     14  C6        -2.4560   29.1970    9.2310 C.3     1  LIG1        0.0160
     15  C7        -2.3140   28.3730   10.4980 C.3     1  LIG1       -0.0081
     16  C8        -3.4470   28.6080   11.4930 C.2     1  LIG1        0.0066
     17  C9        -4.1790   27.5200   11.9780 C.2     1  LIG1        0.1770
     18  C10       -4.0580   26.0330   11.6910 C.2     1  LIG1        0.3697
     19  C11       -5.7180   26.2880   13.0450 C.2     1  LIG1        0.3655
     20  H1        -3.6790   33.2490   11.7180 H       1  LIG1        0.1665
     21  H2        -1.2540   30.8300    8.6910 H       1  LIG1        0.1491
     22  H3        -5.6140   28.3450   13.3190 H       1  LIG1        0.2512
     23  H4        -7.0750   25.1100   13.9270 H       1  LIG1        0.2410
     24  H5        -7.2070   26.7700   14.2940 H       1  LIG1        0.2410
     25 H          -5.2825   29.9015   13.5252 H       1  LIG1        0.0650
     26 H          -1.9278   28.7016    8.4433 H       1  LIG1        0.0465
     27 H          -3.5026   29.2820    9.0254 H       1  LIG1        0.0465
     28 H          -1.3880   28.6290   10.9691 H       1  LIG1        0.0330
     29 H          -2.3464   27.3418   10.2142 H       1  LIG1        0.0330
@<TRIPOS>BOND
     1     1     9    1
     2     2    13    2
     3     3    18    2
     4     4     9   ar
     5     4    12   ar
     6     4    20    1
     7     5    13   am
     8     5    14    1
     9     5    21    1
    10     6    18    1
    11     6    19    2
    12     7    17    1
    13     7    19    1
    14     7    22    1
    15     8    19    1
    16     8    23    1
    17     8    24    1
    18     9    10   ar
    19    10    11   ar
    20    11    12   ar
    21    11    16    1
    22    12    13    1
    23    14    15    1
    24    15    16    1
    25    16    17    2
    26    17    18    1
    27    10    25    1
    28    14    26    1
    29    14    27    1
    30    15    28    1
    31    15    29    1
