@<TRIPOS>MOLECULE
pose4.pdb
 29 31 0 0 0
SMALL
GASTEIGER

@<TRIPOS>ATOM
      1 Br1         2.5210   30.5060    5.9640 Br      1  LIG1       -0.0308
      2  O1         6.1030   28.9060    2.3200 O.2     1  LIG1       -0.2686
      3  O2         6.8840   23.3270    7.0100 O.2     1  LIG1       -0.2454
      4  N1         4.3490   29.1760    4.3620 N.ar    1  LIG1       -0.3450
      5  N2         6.4370   26.6750    2.7150 N.am    1  LIG1       -0.3098
      6  N3         5.3460   23.6940    8.6810 N.am    1  LIG1       -0.0010
      7  N4         4.5310   25.6740    8.0040 N.pl3   1  LIG1       -0.2020
      8  N5         3.6520   24.7380    9.9420 N.pl3   1  LIG1       -0.2529
      9  C1         3.7490   29.1830    5.5550 C.ar    1  LIG1        0.0841
     10  C2         4.1660   28.1360    6.3240 C.ar    1  LIG1       -0.0216
     11  C3         5.0970   27.4090    5.5350 C.ar    1  LIG1        0.0124
     12  C4         5.1840   28.1160    4.2960 C.ar    1  LIG1        0.1102
     13  C5         5.9370   27.9200    3.0500 C.2     1  LIG1        0.2610
     14  C6         6.3300   25.4130    3.4680 C.3     1  LIG1        0.0160
     15  C7         6.8360   25.5170    4.8950 C.3     1  LIG1       -0.0081
     16  C8         5.7910   26.0650    5.8620 C.2     1  LIG1        0.0066
     17  C9         5.4690   25.3410    7.0150 C.2     1  LIG1        0.1770
     18  C10        5.9990   24.0170    7.5390 C.2     1  LIG1        0.3697
     19  C11        4.4820   24.6880    8.9180 C.2     1  LIG1        0.3655
     20  H1         4.2070   29.8360    3.6470 H       1  LIG1        0.1665
     21  H2         6.9290   26.6250    1.8630 H       1  LIG1        0.1491
     22  H3         3.9940   26.4990    8.0260 H       1  LIG1        0.2512
     23  H4         3.6340   24.0040   10.5980 H       1  LIG1        0.2410
     24  H5         3.0500   25.5090   10.0500 H       1  LIG1        0.2410
     25 H           3.8652   27.9162    7.2864 H       1  LIG1        0.0650
     26 H           6.9016   24.6651    2.9592 H       1  LIG1        0.0465
     27 H           5.2908   25.1632    3.5191 H       1  LIG1        0.0465
     28 H           7.6862   26.1666    4.9084 H       1  LIG1        0.0330
     29 H           7.0827   24.5275    5.2190 H       1  LIG1        0.0330
@<TRIPOS>BOND
     1     1     9    1
     2     2    13    2
     3     3    18    2
     4     4     9   ar
     5     4    12   ar
     6     4    20    1
     7     5    13   am
     8     5    14    1
     9     5    21    1
    10     6    18    1
    11     6    19    2
    12     7    17    1
    13     7    19    1
    14     7    22    1
    15     8    19    1
    16     8    23    1
    17     8    24    1
    18     9    10   ar
    19    10    11   ar
    20    11    12   ar
    21    11    16    1
    22    12    13    1
    23    14    15    1
    24    15    16    1
    25    16    17    2
    26    17    18    1
    27    10    25    1
    28    14    26    1
    29    14    27    1
    30    15    28    1
    31    15    29    1
