@<TRIPOS>MOLECULE
pose5.pdb
 29 31 0 0 0
SMALL
GASTEIGER

@<TRIPOS>ATOM
      1 Br1        -5.9320   33.0100   13.8150 Br      1  LIG1       -0.0308
      2  O1        -2.1170   32.8880   10.0590 O.2     1  LIG1       -0.2686
      3  O2        -3.2790   25.6660   10.5440 O.2     1  LIG1       -0.2454
      4  N1        -4.1300   32.4000   11.8010 N.ar    1  LIG1       -0.3450
      5  N2        -2.2920   30.8320    9.0630 N.am    1  LIG1       -0.3098
      6  N3        -4.9970   25.4090   12.0520 N.am    1  LIG1       -0.0010
      7  N4        -5.2830   27.5530   12.6550 N.pl3   1  LIG1       -0.2020
      8  N5        -6.6620   25.9530   13.6270 N.pl3   1  LIG1       -0.2529
      9  C1        -4.9240   31.8870   12.7430 C.ar    1  LIG1        0.0841
     10  C2        -4.8610   30.5240   12.7540 C.ar    1  LIG1       -0.0216
     11  C3        -3.9580   30.1590   11.7200 C.ar    1  LIG1        0.0124
     12  C4        -3.5140   31.3910   11.1470 C.ar    1  LIG1        0.1102
     13  C5        -2.5980   31.7470   10.0550 C.2     1  LIG1        0.2610
     14  C6        -2.7720   29.4480    8.9160 C.3     1  LIG1        0.0160
     15  C7        -2.5230   28.5890   10.1420 C.3     1  LIG1       -0.0081
     16  C8        -3.6040   28.7420   11.2090 C.2     1  LIG1        0.0066
     17  C9        -4.2620   27.6070   11.6950 C.2     1  LIG1        0.1770
     18  C10       -4.0980   26.1380   11.3480 C.2     1  LIG1        0.3697
     19  C11       -5.6850   26.2770   12.8030 C.2     1  LIG1        0.3655
     20  H1        -4.0110   33.3590   11.6130 H       1  LIG1        0.1665
     21  H2        -1.6720   31.1470    8.3670 H       1  LIG1        0.1491
     22  H3        -5.6480   28.3250   13.1440 H       1  LIG1        0.2512
     23  H4        -6.9380   25.0120   13.7180 H       1  LIG1        0.2410
     24  H5        -7.1160   26.6520   14.1520 H       1  LIG1        0.2410
     25 H          -5.3680   29.8859   13.3870 H       1  LIG1        0.0650
     26 H          -2.2709   29.0022    8.0823 H       1  LIG1        0.0465
     27 H          -3.8315   29.4951    8.7739 H       1  LIG1        0.0465
     28 H          -1.5819   28.8679   10.5680 H       1  LIG1        0.0330
     29 H          -2.5311   27.5676    9.8233 H       1  LIG1        0.0330
@<TRIPOS>BOND
     1     1     9    1
     2     2    13    2
     3     3    18    2
     4     4     9   ar
     5     4    12   ar
     6     4    20    1
     7     5    13   am
     8     5    14    1
     9     5    21    1
    10     6    18    1
    11     6    19    2
    12     7    17    1
    13     7    19    1
    14     7    22    1
    15     8    19    1
    16     8    23    1
    17     8    24    1
    18     9    10   ar
    19    10    11   ar
    20    11    12   ar
    21    11    16    1
    22    12    13    1
    23    14    15    1
    24    15    16    1
    25    16    17    2
    26    17    18    1
    27    10    25    1
    28    14    26    1
    29    14    27    1
    30    15    28    1
    31    15    29    1
