@<TRIPOS>MOLECULE
pose7.pdb
 29 31 0 0 0
SMALL
GASTEIGER

@<TRIPOS>ATOM
      1 Br1         0.5370   31.9700    7.3030 Br      1  LIG1       -0.0308
      2  O1        -1.9800   27.3450    8.2790 O.2     1  LIG1       -0.2686
      3  O2        -5.3260   31.4040   13.3840 O.2     1  LIG1       -0.2454
      4  N1        -1.1260   29.9080    8.1150 N.ar    1  LIG1       -0.3450
      5  N2        -3.8660   27.9010    9.4540 N.am    1  LIG1       -0.3098
      6  N3        -4.5020   33.5360   13.1270 N.am    1  LIG1       -0.0010
      7  N4        -2.9950   33.1580   11.5070 N.pl3   1  LIG1       -0.2020
      8  N5        -3.2180   35.3310   12.3010 N.pl3   1  LIG1       -0.2529
      9  C1        -0.7300   31.1550    8.3790 C.ar    1  LIG1        0.0841
     10  C2        -1.3750   31.6570    9.4710 C.ar    1  LIG1       -0.0216
     11  C3        -2.2580   30.6370    9.9160 C.ar    1  LIG1        0.0124
     12  C4        -2.0570   29.5410    9.0220 C.ar    1  LIG1        0.1102
     13  C5        -2.6350   28.1950    8.8970 C.2     1  LIG1        0.2610
     14  C6        -4.7620   28.7890   10.2140 C.3     1  LIG1        0.0160
     15  C7        -4.0920   29.4440   11.4080 C.3     1  LIG1       -0.0081
     16  C8        -3.3180   30.7070   11.0410 C.2     1  LIG1        0.0066
     17  C9        -3.5880   31.9030   11.7140 C.2     1  LIG1        0.1770
     18  C10       -4.5700   32.2170   12.8290 C.2     1  LIG1        0.3697
     19  C11       -3.5710   34.0600   12.3210 C.2     1  LIG1        0.3655
     20  H1        -0.7940   29.3470    7.3770 H       1  LIG1        0.1665
     21  H2        -4.1850   26.9780    9.3250 H       1  LIG1        0.1491
     22  H3        -2.2710   33.3470   10.8660 H       1  LIG1        0.2512
     23  H4        -3.6540   35.9730   12.9070 H       1  LIG1        0.2410
     24  H5        -2.5180   35.6380   11.6810 H       1  LIG1        0.2410
     25 H          -1.2471   32.5913    9.8902 H       1  LIG1        0.0650
     26 H          -5.5925   28.2128   10.5651 H       1  LIG1        0.0465
     27 H          -5.0645   29.5735    9.5522 H       1  LIG1        0.0465
     28 H          -3.4120   28.7425   11.8443 H       1  LIG1        0.0330
     29 H          -4.8647   29.7301   12.0906 H       1  LIG1        0.0330
@<TRIPOS>BOND
     1     1     9    1
     2     2    13    2
     3     3    18    2
     4     4     9   ar
     5     4    12   ar
     6     4    20    1
     7     5    13   am
     8     5    14    1
     9     5    21    1
    10     6    18    1
    11     6    19    2
    12     7    17    1
    13     7    19    1
    14     7    22    1
    15     8    19    1
    16     8    23    1
    17     8    24    1
    18     9    10   ar
    19    10    11   ar
    20    11    12   ar
    21    11    16    1
    22    12    13    1
    23    14    15    1
    24    15    16    1
    25    16    17    2
    26    17    18    1
    27    10    25    1
    28    14    26    1
    29    14    27    1
    30    15    28    1
    31    15    29    1
