@<TRIPOS>MOLECULE
pose8.pdb
 29 31 0 0 0
SMALL
GASTEIGER

@<TRIPOS>ATOM
      1 Br1         2.4700   27.3550   12.5520 Br      1  LIG1       -0.0308
      2  O1        -1.3650   24.1790   14.5210 O.2     1  LIG1       -0.2686
      3  O2        -5.7100   29.3520   11.6760 O.2     1  LIG1       -0.2454
      4  N1         0.1350   26.0320   13.2410 N.ar    1  LIG1       -0.3450
      5  N2        -3.2890   24.7790   13.4320 N.am    1  LIG1       -0.3098
      6  N3        -4.3050   30.8460   10.6350 N.am    1  LIG1       -0.0010
      7  N4        -2.3260   29.9440   11.1950 N.pl3   1  LIG1       -0.2020
      8  N5        -2.3180   31.8670    9.8870 N.pl3   1  LIG1       -0.2529
      9  C1         0.6390   27.1630   12.7410 C.ar    1  LIG1        0.0841
     10  C2        -0.3510   28.0460   12.4250 C.ar    1  LIG1       -0.0216
     11  C3        -1.5770   27.4030   12.7460 C.ar    1  LIG1        0.0124
     12  C4        -1.2120   26.1240   13.2680 C.ar    1  LIG1        0.1102
     13  C5        -1.9630   24.9680   13.7770 C.2     1  LIG1        0.2610
     14  C6        -4.1370   25.6190   12.5690 C.3     1  LIG1        0.0160
     15  C7        -4.1910   27.0720   13.0050 C.3     1  LIG1       -0.0081
     16  C8        -3.0190   27.8960   12.4810 C.2     1  LIG1        0.0066
     17  C9        -3.2670   29.0710   11.7620 C.2     1  LIG1        0.1770
     18  C10       -4.5720   29.7440   11.3750 C.2     1  LIG1        0.3697
     19  C11       -2.9730   30.9270   10.5410 C.2     1  LIG1        0.3655
     20  H1         0.6610   25.2560   13.5410 H       1  LIG1        0.1665
     21  H2        -3.7210   23.9810   13.8130 H       1  LIG1        0.1491
     22  H3        -1.3490   29.8530   11.2640 H       1  LIG1        0.2512
     23  H4        -2.8130   32.5750    9.4160 H       1  LIG1        0.2410
     24  H5        -1.3330   31.8600    9.8700 H       1  LIG1        0.2410
     25 H          -0.2333   28.9926   12.0312 H       1  LIG1        0.0650
     26 H          -5.1313   25.2238   12.5829 H       1  LIG1        0.0465
     27 H          -3.7069   25.5996   11.5894 H       1  LIG1        0.0465
     28 H          -4.1816   27.1076   14.0744 H       1  LIG1        0.0330
     29 H          -5.0861   27.4948   12.5989 H       1  LIG1        0.0330
@<TRIPOS>BOND
     1     1     9    1
     2     2    13    2
     3     3    18    2
     4     4     9   ar
     5     4    12   ar
     6     4    20    1
     7     5    13   am
     8     5    14    1
     9     5    21    1
    10     6    18    1
    11     6    19    2
    12     7    17    1
    13     7    19    1
    14     7    22    1
    15     8    19    1
    16     8    23    1
    17     8    24    1
    18     9    10   ar
    19    10    11   ar
    20    11    12   ar
    21    11    16    1
    22    12    13    1
    23    14    15    1
    24    15    16    1
    25    16    17    2
    26    17    18    1
    27    10    25    1
    28    14    26    1
    29    14    27    1
    30    15    28    1
    31    15    29    1
