@<TRIPOS>MOLECULE
pose3.pdb
 29 31 0 0 0
SMALL
GASTEIGER

@<TRIPOS>ATOM
      1 Br1        -2.9000   34.7950   12.6460 Br      1  LIG1       -0.0308
      2  O1        -5.9130   30.4000   13.1840 O.2     1  LIG1       -0.2686
      3  O2        -2.1230   28.3000    7.2710 O.2     1  LIG1       -0.2454
      4  N1        -4.0830   32.2910   12.5510 N.ar    1  LIG1       -0.3450
      5  N2        -4.8470   28.7660   11.9850 N.am    1  LIG1       -0.3098
      6  N3        -0.6250   29.9940    6.8540 N.am    1  LIG1       -0.0010
      7  N4        -1.2580   31.4480    8.4450 N.pl3   1  LIG1       -0.2020
      8  N5         0.5090   32.0500    7.0590 N.pl3   1  LIG1       -0.2529
      9  C1        -3.2660   33.1340   11.9160 C.ar    1  LIG1        0.0841
     10  C2        -2.8000   32.5890   10.7550 C.ar    1  LIG1       -0.0216
     11  C3        -3.3680   31.2890   10.6690 C.ar    1  LIG1        0.0124
     12  C4        -4.1820   31.1500   11.8350 C.ar    1  LIG1        0.1102
     13  C5        -5.0320   30.0800   12.3750 C.2     1  LIG1        0.2610
     14  C6        -3.8560   28.2240   11.0400 C.3     1  LIG1        0.0160
     15  C7        -3.8940   28.8910    9.6770 C.3     1  LIG1       -0.0081
     16  C8        -3.0870   30.1850    9.6220 C.2     1  LIG1        0.0066
     17  C9        -2.1030   30.3450    8.6410 C.2     1  LIG1        0.1770
     18  C10       -1.6480   29.4170    7.5290 C.2     1  LIG1        0.3697
     19  C11       -0.4160   31.1850    7.4280 C.2     1  LIG1        0.3655
     20  H1        -4.5390   32.4710   13.4050 H       1  LIG1        0.1665
     21  H2        -5.4560   28.1080   12.3920 H       1  LIG1        0.1491
     22  H3        -1.2780   32.2820    8.9680 H       1  LIG1        0.2512
     23  H4         1.1140   31.8350    6.3120 H       1  LIG1        0.2410
     24  H5         0.5950   32.9100    7.5300 H       1  LIG1        0.2410
     25 H          -2.1625   33.0322   10.0752 H       1  LIG1        0.0650
     26 H          -4.0463   27.1789   10.9115 H       1  LIG1        0.0465
     27 H          -2.8881   28.4111   11.4560 H       1  LIG1        0.0465
     28 H          -4.9122   29.1139    9.4351 H       1  LIG1        0.0330
     29 H          -3.4558   28.2113    8.9764 H       1  LIG1        0.0330
@<TRIPOS>BOND
     1     1     9    1
     2     2    13    2
     3     3    18    2
     4     4     9   ar
     5     4    12   ar
     6     4    20    1
     7     5    13   am
     8     5    14    1
     9     5    21    1
    10     6    18    1
    11     6    19    2
    12     7    17    1
    13     7    19    1
    14     7    22    1
    15     8    19    1
    16     8    23    1
    17     8    24    1
    18     9    10   ar
    19    10    11   ar
    20    11    12   ar
    21    11    16    1
    22    12    13    1
    23    14    15    1
    24    15    16    1
    25    16    17    2
    26    17    18    1
    27    10    25    1
    28    14    26    1
    29    14    27    1
    30    15    28    1
    31    15    29    1
