@<TRIPOS>MOLECULE
pose9.pdb
 29 31 0 0 0
SMALL
GASTEIGER

@<TRIPOS>ATOM
      1 Br1        -1.2360   24.6410    8.2680 Br      1  LIG1       -0.0308
      2  O1        -4.2230   25.9350   12.5200 O.2     1  LIG1       -0.2686
      3  O2        -2.5820   32.7390   10.3400 O.2     1  LIG1       -0.2454
      4  N1        -2.7750   25.8400   10.2360 N.ar    1  LIG1       -0.3450
      5  N2        -4.8280   28.1230   12.2120 N.am    1  LIG1       -0.3098
      6  N3        -1.3560   32.4980    8.4090 N.am    1  LIG1       -0.0010
      7  N4        -1.2230   30.2580    8.3320 N.pl3   1  LIG1       -0.2020
      8  N5        -0.2070   31.4700    6.6270 N.pl3   1  LIG1       -0.2529
      9  C1        -1.8970   26.0610    9.2560 C.ar    1  LIG1        0.0841
     10  C2        -1.6190   27.3910    9.1320 C.ar    1  LIG1       -0.0216
     11  C3        -2.4020   28.0540   10.1140 C.ar    1  LIG1        0.0124
     12  C4        -3.1170   27.0210   10.7960 C.ar    1  LIG1        0.1102
     13  C5        -4.0910   26.9960   11.8960 C.2     1  LIG1        0.2610
     14  C6        -4.7880   29.4500   11.5750 C.3     1  LIG1        0.0160
     15  C7        -3.3980   30.0580   11.5310 C.3     1  LIG1       -0.0081
     16  C8        -2.5720   29.5750   10.3420 C.2     1  LIG1        0.0066
     17  C9        -1.9960   30.5100    9.4760 C.2     1  LIG1        0.1770
     18  C10       -2.0270   32.0280    9.4880 C.2     1  LIG1        0.3697
     19  C11       -0.9050   31.4270    7.7460 C.2     1  LIG1        0.3655
     20  H1        -3.1190   24.9580   10.5080 H       1  LIG1        0.1665
     21  H2        -5.4600   28.0250   12.9610 H       1  LIG1        0.1491
     22  H3        -0.9560   29.3670    8.0090 H       1  LIG1        0.2512
     23  H4         0.0130   32.3370    6.2170 H       1  LIG1        0.2410
     24  H5         0.0940   30.6340    6.2030 H       1  LIG1        0.2410
     25 H          -0.9697   27.8278    8.4592 H       1  LIG1        0.0650
     26 H          -5.4287   30.1085   12.1234 H       1  LIG1        0.0465
     27 H          -5.1085   29.3230   10.5621 H       1  LIG1        0.0465
     28 H          -2.8832   29.7970   12.4320 H       1  LIG1        0.0330
     29 H          -3.5153   31.1167   11.4296 H       1  LIG1        0.0330
@<TRIPOS>BOND
     1     1     9    1
     2     2    13    2
     3     3    18    2
     4     4     9   ar
     5     4    12   ar
     6     4    20    1
     7     5    13   am
     8     5    14    1
     9     5    21    1
    10     6    18    1
    11     6    19    2
    12     7    17    1
    13     7    19    1
    14     7    22    1
    15     8    19    1
    16     8    23    1
    17     8    24    1
    18     9    10   ar
    19    10    11   ar
    20    11    12   ar
    21    11    16    1
    22    12    13    1
    23    14    15    1
    24    15    16    1
    25    16    17    2
    26    17    18    1
    27    10    25    1
    28    14    26    1
    29    14    27    1
    30    15    28    1
    31    15    29    1
