@<TRIPOS>MOLECULE
pose2.pdb
 29 31 0 0 0
SMALL
GASTEIGER

@<TRIPOS>ATOM
      1 Br1         2.3690   28.1360   12.8230 Br      1  LIG1       -0.0308
      2  O1        -0.4030   23.5620   12.5650 O.2     1  LIG1       -0.2686
      3  O2        -5.9980   28.1840   11.5340 O.2     1  LIG1       -0.2454
      4  N1         0.5160   26.1050   12.4760 N.ar    1  LIG1       -0.3450
      5  N2        -2.3790   24.0900   11.5350 N.am    1  LIG1       -0.3098
      6  N3        -5.0700   30.2890   11.4870 N.am    1  LIG1       -0.0010
      7  N4        -2.9330   29.7610   11.9280 N.pl3   1  LIG1       -0.2020
      8  N5        -3.4550   32.0010   11.5940 N.pl3   1  LIG1       -0.2529
      9  C1         0.6750   27.4250   12.6020 C.ar    1  LIG1        0.0841
     10  C2        -0.5230   28.0740   12.5360 C.ar    1  LIG1       -0.0216
     11  C3        -1.5100   27.0710   12.3390 C.ar    1  LIG1        0.0124
     12  C4        -0.7970   25.8330   12.3140 C.ar    1  LIG1        0.1102
     13  C5        -1.1840   24.4260   12.1440 C.2     1  LIG1        0.2610
     14  C6        -3.4100   24.9890   10.9870 C.3     1  LIG1        0.0160
     15  C7        -3.9120   26.0130   11.9890 C.3     1  LIG1       -0.0081
     16  C8        -3.0240   27.2510   12.0740 C.2     1  LIG1        0.0066
     17  C9        -3.5870   28.5200   11.8990 C.2     1  LIG1        0.1770
     18  C10       -5.0190   28.9420   11.6260 C.2     1  LIG1        0.3697
     19  C11       -3.8210   30.7360   11.6610 C.2     1  LIG1        0.3655
     20  H1         1.2400   25.4380   12.4970 H       1  LIG1        0.1665
     21  H2        -2.5650   23.1270   11.4580 H       1  LIG1        0.1491
     22  H3        -1.9760   29.8960   12.1130 H       1  LIG1        0.2512
     23  H4        -4.1240   32.6970   11.3970 H       1  LIG1        0.2410
     24  H5        -2.5140   32.2500   11.7400 H       1  LIG1        0.2410
     25 H          -0.6810   29.0909   12.6137 H       1  LIG1        0.0650
     26 H          -4.2398   24.3960   10.6636 H       1  LIG1        0.0465
     27 H          -2.9607   25.5302   10.1807 H       1  LIG1        0.0465
     28 H          -3.9503   25.5542   12.9549 H       1  LIG1        0.0330
     29 H          -4.8781   26.3347   11.6603 H       1  LIG1        0.0330
@<TRIPOS>BOND
     1     1     9    1
     2     2    13    2
     3     3    18    2
     4     4     9   ar
     5     4    12   ar
     6     4    20    1
     7     5    13   am
     8     5    14    1
     9     5    21    1
    10     6    18    1
    11     6    19    2
    12     7    17    1
    13     7    19    1
    14     7    22    1
    15     8    19    1
    16     8    23    1
    17     8    24    1
    18     9    10   ar
    19    10    11   ar
    20    11    12   ar
    21    11    16    1
    22    12    13    1
    23    14    15    1
    24    15    16    1
    25    16    17    2
    26    17    18    1
    27    10    25    1
    28    14    26    1
    29    14    27    1
    30    15    28    1
    31    15    29    1
