TOL.pdb
 OpenBabel02222112373D

 38 39  0  0  0  0  0  0  0  0999 V2000
   71.1310   40.2430   88.3400 C   0  0  0  0  0  0  0  0  0  0  0  0
   71.8760   39.2470   88.8820 F   0  0  0  0  0  0  0  0  0  0  0  0
   71.6670   41.4160   88.7700 F   0  0  0  0  0  0  0  0  0  0  0  0
   71.2870   40.1990   86.9900 F   0  0  0  0  0  0  0  0  0  0  0  0
   69.6410   40.1110   88.7230 C   0  0  0  0  0  0  0  0  0  0  0  0
   68.9050   41.1220   89.3940 C   0  0  0  0  0  0  0  0  0  0  0  0
   69.5000   42.2540   89.7240 O   0  0  0  0  0  0  0  0  0  0  0  0
   68.6330   43.1630   90.3820 C   0  0  0  0  0  0  0  0  0  0  0  0
   67.5450   40.8990   89.7020 C   0  0  0  0  0  0  0  0  0  0  0  0
   66.9190   39.6970   89.3530 C   0  0  0  0  0  0  0  0  0  0  0  0
   67.6470   38.6900   88.6890 C   0  0  0  0  0  0  0  0  0  0  0  0
   67.0030   37.4790   88.3430 C   0  0  0  0  0  0  0  0  0  0  0  0
   67.7290   36.4760   87.6800 C   0  0  0  0  0  0  0  0  0  0  0  0
   69.0760   36.6690   87.3650 C   0  0  0  0  0  0  0  0  0  0  0  0
   69.7090   37.8700   87.7090 C   0  0  0  0  0  0  0  0  0  0  0  0
   69.0040   38.8910   88.3730 C   0  0  0  0  0  0  0  0  0  0  0  0
   65.5520   37.1860   88.6440 C   0  0  0  0  0  0  0  0  0  0  0  0
   64.3750   37.4100   87.4190 S   0  0  0  0  0  0  0  0  0  0  0  0
   65.2070   36.7430   89.8540 N   0  0  0  0  0  0  0  0  0  0  0  0
   66.2400   36.4590   90.8440 C   0  0  0  0  0  0  0  0  0  0  0  0
   63.8120   36.5130   90.2160 C   0  0  0  0  0  0  0  0  0  0  0  0
   63.0560   37.8360   90.4270 C   0  0  0  0  0  0  0  0  0  0  0  0
   61.8590   37.8810   90.5370 O   0  0  0  0  0  0  0  0  0  0  0  0
   63.8220   38.9310   90.4870 O   0  0  0  0  0  0  0  0  0  0  0  0
   69.1696   44.0568   90.6230 H   0  0  0  0  0  0  0  0  0  0  0  0
   68.2630   42.7158   91.2809 H   0  0  0  0  0  0  0  0  0  0  0  0
   67.8122   43.4023   89.7386 H   0  0  0  0  0  0  0  0  0  0  0  0
   67.0062   41.6313   90.1904 H   0  0  0  0  0  0  0  0  0  0  0  0
   65.9238   39.5482   89.5821 H   0  0  0  0  0  0  0  0  0  0  0  0
   67.2643   35.5908   87.4240 H   0  0  0  0  0  0  0  0  0  0  0  0
   69.6043   35.9274   86.8793 H   0  0  0  0  0  0  0  0  0  0  0  0
   70.7041   38.0079   87.4728 H   0  0  0  0  0  0  0  0  0  0  0  0
   67.2017   36.6774   90.4288 H   0  0  0  0  0  0  0  0  0  0  0  0
   66.1964   35.4258   91.1186 H   0  0  0  0  0  0  0  0  0  0  0  0
   66.0797   37.0655   91.7108 H   0  0  0  0  0  0  0  0  0  0  0  0
   63.7775   35.9451   91.1222 H   0  0  0  0  0  0  0  0  0  0  0  0
   63.3414   35.9828   89.4145 H   0  0  0  0  0  0  0  0  0  0  0  0
   64.7518   38.8578   90.3971 H   0  0  0  0  0  0  0  0  0  0  0  0
  1  2  1  0  0  0  0
  1  3  1  0  0  0  0
  1  4  1  0  0  0  0
  1  5  1  0  0  0  0
  5  6  2  0  0  0  0
  5 16  1  0  0  0  0
  6  7  1  0  0  0  0
  6  9  1  0  0  0  0
  7  8  1  0  0  0  0
  8 25  1  0  0  0  0
  8 26  1  0  0  0  0
  8 27  1  0  0  0  0
  9 10  2  0  0  0  0
  9 28  1  0  0  0  0
 10 11  1  0  0  0  0
 10 29  1  0  0  0  0
 11 12  2  0  0  0  0
 11 16  1  0  0  0  0
 12 13  1  0  0  0  0
 12 17  1  0  0  0  0
 13 14  2  0  0  0  0
 13 30  1  0  0  0  0
 14 15  1  0  0  0  0
 14 31  1  0  0  0  0
 15 16  2  0  0  0  0
 15 32  1  0  0  0  0
 17 18  2  0  0  0  0
 17 19  1  0  0  0  0
 19 20  1  0  0  0  0
 19 21  1  0  0  0  0
 20 33  1  0  0  0  0
 20 34  1  0  0  0  0
 20 35  1  0  0  0  0
 21 22  1  0  0  0  0
 21 36  1  0  0  0  0
 21 37  1  0  0  0  0
 22 23  2  0  0  0  0
 22 24  1  0  0  0  0
 24 38  1  0  0  0  0
M  END
>  <HET>
 TOL  A 320      24

>  <HETNAM>
     TOL TOLRESTAT

>  <FORMUL>
      TOL    C16 H14 F3 N1 O3 S1

$$$$
