REMARK  6 active torsions:
REMARK  status: ('A' for Active; 'I' for Inactive)
REMARK    1  A    between atoms: C1_1  and  S_7 
REMARK    2  A    between atoms: S_7  and  C7_8 
REMARK    3  A    between atoms: C12_9  and  CF_10 
REMARK    4  A    between atoms: N8_15  and  CA_20 
REMARK    5  A    between atoms: CA_20  and  OB_21 
REMARK    6  A    between atoms: OB_21  and  CC_22 
ROOT
HETATM    1  C7  612 A 999      -2.029 -35.426  24.392  1.00 18.06     0.090 A 
HETATM    2  C12 612 A 999      -3.049 -34.700  23.793  1.00 14.61     0.047 A 
HETATM    3  C11 612 A 999      -3.215 -34.752  22.350  1.00 18.65     0.258 A 
HETATM    4  O11 612 A 999      -4.119 -34.186  21.750  1.00 19.51    -0.267 OA
HETATM    5  N8  612 A 999      -1.139 -36.193  23.616  1.00 19.76    -0.271 N 
HETATM    6  C9  612 A 999      -1.247 -36.262  22.212  1.00 23.47     0.332 A 
HETATM    7  O9  612 A 999      -0.466 -36.909  21.518  1.00 22.87    -0.246 OA
HETATM    8  N10 612 A 999      -2.292 -35.540  21.656  1.00 16.93    -0.275 N 
ATOM      9  H10 612 A 999      -2.399 -35.588  20.643  1.00  0.00     0.173 HD
ENDROOT
BRANCH   1  10
HETATM   10  S   612 A 999      -1.845 -35.478  26.242  1.00 32.26    -0.106 SA
BRANCH  10  11
HETATM   11  C1  612 A 999      -0.782 -34.082  26.755  1.00 32.95     0.054 C 
HETATM   12  C2  612 A 999      -1.408 -33.549  28.036  1.00 34.65     0.015 C 
HETATM   13  C3  612 A 999      -0.542 -32.484  28.656  1.00 27.76     0.001 C 
HETATM   14  C4  612 A 999       0.861 -33.018  28.927  1.00 29.08     0.000 C 
HETATM   15  C5  612 A 999       1.488 -33.535  27.638  1.00 28.74     0.001 C 
HETATM   16  C6  612 A 999       0.617 -34.614  27.033  1.00 30.82     0.015 C 
ENDBRANCH  10  11
ENDBRANCH   1  10
BRANCH   2  17
HETATM   17  CF  612 A 999      -3.918 -33.656  24.518  1.00 10.07     0.019 C 
HETATM   18  CH  612 A 999      -3.139 -32.612  25.284  1.00 14.61     0.015 C 
HETATM   19  CI  612 A 999      -5.058 -34.243  25.277  1.00 17.14     0.015 C 
ENDBRANCH   2  17
BRANCH   5  20
HETATM   20  CA  612 A 999      -0.003 -36.936  24.217  1.00 21.69     0.304 C 
BRANCH  20  21
HETATM   21  OB  612 A 999      -0.286 -38.326  24.338  1.00 29.12    -0.372 OA
BRANCH  21  22
HETATM   22  CC  612 A 999       0.142 -38.844  25.601  1.00 25.28     0.165 C 
HETATM   23  CD  612 A 999       1.110 -37.898  26.268  1.00 18.82     0.033 C 
ENDBRANCH  21  22
ENDBRANCH  20  21
ENDBRANCH   5  20
TORSDOF 6
