REMARK  6 active torsions:
REMARK  status: ('A' for Active; 'I' for Inactive)
REMARK    1  A    between atoms: C1_1  and  S_7 
REMARK    2  A    between atoms: S_7  and  C7_8 
REMARK    3  A    between atoms: C12_9  and  CF_10 
REMARK    4  A    between atoms: N8_15  and  CA_20 
REMARK    5  A    between atoms: CA_20  and  OB_21 
REMARK    6  A    between atoms: OB_21  and  CC_22 
ROOT
HETATM    1  C7  612 A 999       0.055 -35.248  26.864  1.00 18.06     0.090 A 
HETATM    2  C12 612 A 999       1.063 -34.294  26.846  1.00 14.61     0.047 A 
HETATM    3  C11 612 A 999       2.299 -34.568  26.133  1.00 18.65     0.258 A 
HETATM    4  O11 612 A 999       3.213 -33.761  26.023  1.00 19.51    -0.267 OA
HETATM    5  N8  612 A 999       0.228 -36.488  26.220  1.00 19.76    -0.271 N 
HETATM    6  C9  612 A 999       1.414 -36.810  25.531  1.00 23.47     0.332 A 
HETATM    7  O9  612 A 999       1.589 -37.895  24.982  1.00 22.87    -0.246 OA
HETATM    8  N10 612 A 999       2.386 -35.820  25.519  1.00 16.93    -0.275 N 
ATOM      9  H10 612 A 999       3.247 -36.026  25.011  1.00  0.00     0.173 HD
ENDROOT
BRANCH   1  10
HETATM   10  S   612 A 999      -1.584 -34.900  27.669  1.00 32.26    -0.106 SA
BRANCH  10  11
HETATM   11  C1  612 A 999      -2.489 -33.692  26.636  1.00 32.95     0.054 C 
HETATM   12  C2  612 A 999      -1.895 -33.831  25.242  1.00 34.65     0.015 C 
HETATM   13  C3  612 A 999      -2.656 -32.996  24.247  1.00 27.76     0.001 C 
HETATM   14  C4  612 A 999      -4.134 -33.375  24.240  1.00 29.08     0.000 C 
HETATM   15  C5  612 A 999      -4.726 -33.218  25.635  1.00 28.74     0.001 C 
HETATM   16  C6  612 A 999      -3.962 -34.074  26.622  1.00 30.82     0.015 C 
ENDBRANCH  10  11
ENDBRANCH   1  10
BRANCH   2  17
HETATM   17  CF  612 A 999       1.069 -33.016  27.706  1.00 10.07     0.019 C 
HETATM   18  CH  612 A 999       0.725 -33.236  29.160  1.00 14.61     0.015 C 
HETATM   19  CI  612 A 999       0.362 -31.864  27.080  1.00 17.14     0.015 C 
ENDBRANCH   2  17
BRANCH   5  20
HETATM   20  CA  612 A 999      -0.805 -37.554  26.267  1.00 21.69     0.304 C 
BRANCH  20  21
HETATM   21  OB  612 A 999      -1.873 -37.295  25.362  1.00 29.12    -0.372 OA
BRANCH  21  22
HETATM   22  CC  612 A 999      -1.502 -37.585  24.011  1.00 25.28     0.165 C 
HETATM   23  CD  612 A 999      -1.637 -36.359  23.143  1.00 18.82     0.033 C 
ENDBRANCH  21  22
ENDBRANCH  20  21
ENDBRANCH   5  20
TORSDOF 6
