REMARK  6 active torsions:
REMARK  status: ('A' for Active; 'I' for Inactive)
REMARK    1  A    between atoms: C1_1  and  S_7 
REMARK    2  A    between atoms: S_7  and  C7_8 
REMARK    3  A    between atoms: C12_9  and  CF_10 
REMARK    4  A    between atoms: N8_15  and  CA_20 
REMARK    5  A    between atoms: CA_20  and  OB_21 
REMARK    6  A    between atoms: OB_21  and  CC_22 
ROOT
HETATM    1  C7  612 A 999      -1.718 -35.884  24.454  1.00 18.06     0.090 A 
HETATM    2  C12 612 A 999      -2.671 -34.953  24.067  1.00 14.61     0.047 A 
HETATM    3  C11 612 A 999      -2.908 -34.712  22.653  1.00 18.65     0.258 A 
HETATM    4  O11 612 A 999      -3.765 -33.949  22.229  1.00 19.51    -0.267 OA
HETATM    5  N8  612 A 999      -0.961 -36.581  23.493  1.00 19.76    -0.271 N 
HETATM    6  C9  612 A 999      -1.140 -36.371  22.111  1.00 23.47     0.332 A 
HETATM    7  O9  612 A 999      -0.474 -36.956  21.259  1.00 22.87    -0.246 OA
HETATM    8  N10 612 A 999      -2.117 -35.449  21.767  1.00 16.93    -0.275 N 
ATOM      9  H10 612 A 999      -2.275 -35.293  20.771  1.00  0.00     0.173 HD
ENDROOT
BRANCH   1  10
HETATM   10  S   612 A 999      -1.457 -36.305  26.246  1.00 32.26    -0.106 SA
BRANCH  10  11
HETATM   11  C1  612 A 999      -0.016 -35.359  26.857  1.00 32.95     0.054 C 
HETATM   12  C2  612 A 999       0.573 -34.684  25.626  1.00 34.65     0.015 C 
HETATM   13  C3  612 A 999       1.685 -33.743  26.008  1.00 27.76     0.001 C 
HETATM   14  C4  612 A 999       1.191 -32.700  27.006  1.00 29.08     0.000 C 
HETATM   15  C5  612 A 999       0.618 -33.381  28.242  1.00 28.74     0.001 C 
HETATM   16  C6  612 A 999      -0.508 -34.312  27.847  1.00 30.82     0.015 C 
ENDBRANCH  10  11
ENDBRANCH   1  10
BRANCH   2  17
HETATM   17  CF  612 A 999      -3.376 -33.977  25.027  1.00 10.07     0.019 C 
HETATM   18  CH  612 A 999      -4.884 -33.982  24.933  1.00 14.61     0.015 C 
HETATM   19  CI  612 A 999      -2.772 -32.615  25.054  1.00 17.14     0.015 C 
ENDBRANCH   2  17
BRANCH   5  20
HETATM   20  CA  612 A 999       0.105 -37.543  23.870  1.00 21.69     0.304 C 
BRANCH  20  21
HETATM   21  OB  612 A 999      -0.433 -38.799  24.269  1.00 29.12    -0.372 OA
BRANCH  21  22
HETATM   22  CC  612 A 999       0.110 -39.232  25.520  1.00 25.28     0.165 C 
HETATM   23  CD  612 A 999       1.328 -38.421  25.886  1.00 18.82     0.033 C 
ENDBRANCH  21  22
ENDBRANCH  20  21
ENDBRANCH   5  20
TORSDOF 6
