REMARK  6 active torsions:
REMARK  status: ('A' for Active; 'I' for Inactive)
REMARK    1  A    between atoms: C1_1  and  S_7 
REMARK    2  A    between atoms: S_7  and  C7_8 
REMARK    3  A    between atoms: C12_9  and  CF_10 
REMARK    4  A    between atoms: N8_15  and  CA_20 
REMARK    5  A    between atoms: CA_20  and  OB_21 
REMARK    6  A    between atoms: OB_21  and  CC_22 
ROOT
HETATM    1  C7  612 A 999      -1.822 -35.683  24.475  1.00 18.06     0.090 A 
HETATM    2  C12 612 A 999      -2.884 -34.913  24.023  1.00 14.61     0.047 A 
HETATM    3  C11 612 A 999      -3.177 -34.858  22.601  1.00 18.65     0.258 A 
HETATM    4  O11 612 A 999      -4.126 -34.248  22.126  1.00 19.51    -0.267 OA
HETATM    5  N8  612 A 999      -1.011 -36.393  23.570  1.00 19.76    -0.271 N 
HETATM    6  C9  612 A 999      -1.243 -36.358  22.180  1.00 23.47     0.332 A 
HETATM    7  O9  612 A 999      -0.532 -36.955  21.374  1.00 22.87    -0.246 OA
HETATM    8  N10 612 A 999      -2.327 -35.595  21.773  1.00 16.93    -0.275 N 
ATOM      9  H10 612 A 999      -2.523 -35.569  20.772  1.00  0.00     0.173 HD
ENDROOT
BRANCH   1  10
HETATM   10  S   612 A 999      -1.476 -35.870  26.293  1.00 32.26    -0.106 SA
BRANCH  10  11
HETATM   11  C1  612 A 999      -1.008 -34.235  26.962  1.00 32.95     0.054 C 
HETATM   12  C2  612 A 999      -2.143 -33.842  27.896  1.00 34.65     0.015 C 
HETATM   13  C3  612 A 999      -1.815 -32.574  28.639  1.00 27.76     0.001 C 
HETATM   14  C4  612 A 999      -0.510 -32.724  29.415  1.00 29.08     0.000 C 
HETATM   15  C5  612 A 999       0.625 -33.101  28.473  1.00 28.74     0.001 C 
HETATM   16  C6  612 A 999       0.290 -34.384  27.744  1.00 30.82     0.015 C 
ENDBRANCH  10  11
ENDBRANCH   1  10
BRANCH   2  17
HETATM   17  CF  612 A 999      -3.677 -33.922  24.896  1.00 10.07     0.019 C 
HETATM   18  CH  612 A 999      -5.176 -34.102  24.850  1.00 14.61     0.015 C 
HETATM   19  CI  612 A 999      -3.229 -32.507  24.761  1.00 17.14     0.015 C 
ENDBRANCH   2  17
BRANCH   5  20
HETATM   20  CA  612 A 999       0.167 -37.181  24.012  1.00 21.69     0.304 C 
BRANCH  20  21
HETATM   21  OB  612 A 999      -0.169 -38.543  24.254  1.00 29.12    -0.372 OA
BRANCH  21  22
HETATM   22  CC  612 A 999       0.334 -38.995  25.514  1.00 25.28     0.165 C 
HETATM   23  CD  612 A 999       1.119 -37.905  26.201  1.00 18.82     0.033 C 
ENDBRANCH  21  22
ENDBRANCH  20  21
ENDBRANCH   5  20
TORSDOF 6
