SIA.pdb
  rDOCK(R)          3D
libRbt.so/2013.1/901 2013/11/27
 28 28  0  0  0  0  0  0  0  0999 V2000
   -2.0531   56.8664   -5.7564 C   0  0  0  0  0  0
   -1.2936   55.8831   -6.6506 C   0  0  0  0  0  0
   -1.8886   54.9230   -7.6727 C   0  0  0  0  0  0
   -0.9021   54.5347   -8.7633 C   0  0  0  0  0  0
    0.5485   54.6759   -8.3099 C   0  0  0  0  0  0
    0.8128   56.1442   -7.9618 C   0  0  0  0  0  0
    2.2230   56.3434   -7.3758 C   0  0  0  0  0  0
    3.2286   56.8169   -8.4270 C   0  0  0  0  0  0
    3.9837   58.1270   -8.0929 C   0  0  0  0  0  0
    2.0783   53.1846   -9.6443 C   0  0  0  0  0  0
    2.7362   53.0499  -11.0075 C   0  0  0  0  0  0
    1.3369   54.2586   -9.4554 N   0  0  0  0  0  0
   -3.2395   56.9890   -6.1132 O   0  0  0  0  0  0
   -1.6967   57.6261   -4.8366 O   0  0  0  0  0  0
   -0.5690   55.4243   -5.5069 O   0  0  0  0  0  0
   -1.1284   53.1768   -9.0611 O   0  0  0  0  0  0
   -0.0839   56.5996   -6.9272 O   0  0  0  0  0  0
    2.2291   57.3268   -6.3532 O   0  0  0  0  0  0
    4.1980   55.7940   -8.4690 O   0  0  0  0  0  0
    4.6635   58.0210   -6.8516 O   0  0  0  0  0  0
    2.2293   52.3749   -8.7280 O   0  0  0  0  0  0
    1.1930   54.9067  -10.1869 H   0  0  0  0  0  0
   -1.0917   54.6553   -5.2080 H   0  0  0  0  0  0
   -2.0982   53.0595   -9.1082 H   0  0  0  0  0  0
    1.5712   56.7628   -5.8911 H   0  0  0  0  0  0
    3.8567   55.1791   -9.1328 H   0  0  0  0  0  0
    5.0991   58.8954   -6.8354 H   0  0  0  0  0  0
   -2.2432   58.3441   -4.5838 H   0  0  0  0  0  0
  1 13  2  0  0  0
  1 14  1  0  0  0
  2  1  1  0  0  0
  2  3  1  0  0  0
  2 15  1  0  0  0
  2 17  1  0  0  0
  3  4  1  0  0  0
  4  5  1  0  0  0
  4 16  1  0  0  0
  5  6  1  0  0  0
  5 12  1  0  0  0
  6  7  1  0  0  0
  6 17  1  0  0  0
  7  8  1  0  0  0
  7 18  1  0  0  0
  8  9  1  0  0  0
  8 19  1  0  0  0
  9 20  1  0  0  0
 10 11  1  0  0  0
 10 12  1  0  0  0
 10 21  2  0  0  0
 12 22  1  0  0  0
 14 28  1  0  0  0
 15 23  1  0  0  0
 16 24  1  0  0  0
 18 25  1  0  0  0
 19 26  1  0  0  0
 20 27  1  0  0  0
M  END
>  <CHROM.0>
-67.04886495,72.90027012,69.74713581,-50.25395466,85.04237320,-113.61473374
5.94046149,152.11441756,154.48969707,47.17986711

>  <CHROM.1>
160.76451565,-12.21725236,93.74538051,43.76380534,-109.94984287,97.59853700
124.57703902,58.43017464,56.41745776,89.00327211,177.47194854,0.85018439
55.64742953,-7.67107810,-2.67511581,-0.27466121,-2.48898500

>  <FORMUL>
      SIA    C11 H19 N1 O9

>  <HET>
 SIA  A 467      39

>  <HETNAM>
     SIA O-SIALIC ACID

>  <Name>
SIA.pdb

>  <RI>
0

>  <Rbt.Current_Directory>
/home/malgorzata/Desktop/rDOCK_IFD/Wyniki/12_neuraminidase

>  <Rbt.Executable>
rbdock ($Id: //depot/dev/client3/rdock/2013.1/src/exe/rbdock.cxx#4 $)

>  <Rbt.Library>
libRbt.so (2013.1, Build901 2013/11/27)

>  <Rbt.Parameter_File>
/home/malgorzata/Desktop/rDock_2013.1_src/data/scripts/soft_docking.prm

>  <Rbt.Receptor>
cavity.prm

>  <SCORE>
-66.3457

>  <SCORE.INTER>
-33.4854

>  <SCORE.INTER.CONST>
1

>  <SCORE.INTER.POLAR>
-7.28767

>  <SCORE.INTER.REPUL>
0.883985

>  <SCORE.INTER.ROT>
5

>  <SCORE.INTER.VDW>
-23.5272

>  <SCORE.INTER.norm>
-1.59454

>  <SCORE.INTRA>
-4.82157

>  <SCORE.INTRA.DIHEDRAL>
-4.91666

>  <SCORE.INTRA.DIHEDRAL.0>
24.6845

>  <SCORE.INTRA.POLAR>
0.739737

>  <SCORE.INTRA.POLAR.0>
-0.967721

>  <SCORE.INTRA.REPUL>
0

>  <SCORE.INTRA.REPUL.0>
0

>  <SCORE.INTRA.VDW>
-6.35335

>  <SCORE.INTRA.VDW.0>
7.44847

>  <SCORE.INTRA.norm>
-0.229599

>  <SCORE.RESTR>
0.611149

>  <SCORE.RESTR.CAVITY>
0.611149

>  <SCORE.RESTR.norm>
0.0291023

>  <SCORE.SYSTEM>
-28.6499

>  <SCORE.SYSTEM.CONST>
0

>  <SCORE.SYSTEM.DIHEDRAL>
4.89488

>  <SCORE.SYSTEM.POLAR>
-7.11231

>  <SCORE.SYSTEM.REPUL>
0.0340601

>  <SCORE.SYSTEM.VDW>
-7.08576

>  <SCORE.SYSTEM.norm>
-1.36428

>  <SCORE.heavy>
21

>  <SCORE.norm>
-3.15932

$$$$
SIA.pdb
  rDOCK(R)          3D
libRbt.so/2013.1/901 2013/11/27
 28 28  0  0  0  0  0  0  0  0999 V2000
    1.0799   56.9792   -6.6426 C   0  0  0  0  0  0
   -0.4277   56.9327   -6.3810 C   0  0  0  0  0  0
   -1.2859   58.0260   -5.7574 C   0  0  0  0  0  0
   -2.7498   57.9294   -6.1589 C   0  0  0  0  0  0
   -3.1467   56.5134   -6.5673 C   0  0  0  0  0  0
   -2.3145   56.1031   -7.7865 C   0  0  0  0  0  0
   -2.5707   54.6366   -8.1807 C   0  0  0  0  0  0
   -1.6775   54.1799   -9.3358 C   0  0  0  0  0  0
   -0.8362   52.9067   -9.0722 C   0  0  0  0  0  0
   -5.1694   57.2536   -7.8732 C   0  0  0  0  0  0
   -6.6778   57.0855   -7.9495 C   0  0  0  0  0  0
   -4.5564   56.6058   -6.9019 N   0  0  0  0  0  0
    1.6343   57.8716   -5.9745 O   0  0  0  0  0  0
    1.8195   56.3875   -7.4507 O   0  0  0  0  0  0
   -0.2681   55.6495   -5.7714 O   0  0  0  0  0  0
   -3.5126   58.2796   -5.0278 O   0  0  0  0  0  0
   -0.9032   56.1648   -7.4933 O   0  0  0  0  0  0
   -2.3049   53.7525   -7.1035 O   0  0  0  0  0  0
   -2.5804   53.8579  -10.3696 O   0  0  0  0  0  0
   -0.0102   53.0692   -7.9295 O   0  0  0  0  0  0
   -4.5208   57.9711   -8.6364 O   0  0  0  0  0  0
   -5.0617   56.0133   -6.2940 H   0  0  0  0  0  0
    0.0591   55.8686   -4.8777 H   0  0  0  0  0  0
   -3.0335   57.9314   -4.2496 H   0  0  0  0  0  0
   -2.8775   53.1067   -7.5721 H   0  0  0  0  0  0
   -2.3658   54.4901  -11.0693 H   0  0  0  0  0  0
    0.5749   53.7794   -8.2578 H   0  0  0  0  0  0
    2.7505   56.4364   -7.3563 H   0  0  0  0  0  0
  1 13  2  0  0  0
  1 14  1  0  0  0
  2  1  1  0  0  0
  2  3  1  0  0  0
  2 15  1  0  0  0
  2 17  1  0  0  0
  3  4  1  0  0  0
  4  5  1  0  0  0
  4 16  1  0  0  0
  5  6  1  0  0  0
  5 12  1  0  0  0
  6  7  1  0  0  0
  6 17  1  0  0  0
  7  8  1  0  0  0
  7 18  1  0  0  0
  8  9  1  0  0  0
  8 19  1  0  0  0
  9 20  1  0  0  0
 10 11  1  0  0  0
 10 12  1  0  0  0
 10 21  2  0  0  0
 12 22  1  0  0  0
 14 28  1  0  0  0
 15 23  1  0  0  0
 16 24  1  0  0  0
 18 25  1  0  0  0
 19 26  1  0  0  0
 20 27  1  0  0  0
M  END
>  <CHROM.0>
-82.73166266,152.14719469,45.30191608,5.15541209,22.79935162,51.65395750
-26.51868234,148.89476543,-148.69344198,3.10747964

>  <CHROM.1>
-168.97270998,17.96540447,79.46085990,-35.85907722,65.46703692,-176.04629877
125.50036973,159.26878738,-56.98493586,116.61057303,-65.13136564,-1.91032401
56.06209009,-7.34766682,-0.20919628,-0.20457483,0.62221272

>  <FORMUL>
      SIA    C11 H19 N1 O9

>  <HET>
 SIA  A 467      39

>  <HETNAM>
     SIA O-SIALIC ACID

>  <Name>
SIA.pdb

>  <RI>
0

>  <Rbt.Current_Directory>
/home/malgorzata/Desktop/rDOCK_IFD/Wyniki/12_neuraminidase

>  <Rbt.Executable>
rbdock ($Id: //depot/dev/client3/rdock/2013.1/src/exe/rbdock.cxx#4 $)

>  <Rbt.Library>
libRbt.so (2013.1, Build901 2013/11/27)

>  <Rbt.Parameter_File>
/home/malgorzata/Desktop/rDock_2013.1_src/data/scripts/soft_docking.prm

>  <Rbt.Receptor>
cavity.prm

>  <SCORE>
-58.8017

>  <SCORE.INTER>
-29.4444

>  <SCORE.INTER.CONST>
1

>  <SCORE.INTER.POLAR>
-7.52679

>  <SCORE.INTER.REPUL>
1.50968

>  <SCORE.INTER.ROT>
5

>  <SCORE.INTER.VDW>
-21.8017

>  <SCORE.INTER.norm>
-1.40212

>  <SCORE.INTRA>
-3.50485

>  <SCORE.INTRA.DIHEDRAL>
-3.45044

>  <SCORE.INTRA.DIHEDRAL.0>
24.6845

>  <SCORE.INTRA.POLAR>
0.967721

>  <SCORE.INTRA.POLAR.0>
-0.967721

>  <SCORE.INTRA.REPUL>
0

>  <SCORE.INTRA.REPUL.0>
0

>  <SCORE.INTRA.VDW>
-6.10501

>  <SCORE.INTRA.VDW.0>
7.44847

>  <SCORE.INTRA.norm>
-0.166898

>  <SCORE.RESTR>
0

>  <SCORE.RESTR.CAVITY>
0

>  <SCORE.RESTR.norm>
0

>  <SCORE.SYSTEM>
-25.8524

>  <SCORE.SYSTEM.CONST>
0

>  <SCORE.SYSTEM.DIHEDRAL>
10.0355

>  <SCORE.SYSTEM.POLAR>
-7.56593

>  <SCORE.SYSTEM.REPUL>
0.0340601

>  <SCORE.SYSTEM.VDW>
-5.31627

>  <SCORE.SYSTEM.norm>
-1.23107

>  <SCORE.heavy>
21

>  <SCORE.norm>
-2.80008

$$$$
SIA.pdb
  rDOCK(R)          3D
libRbt.so/2013.1/901 2013/11/27
 28 28  0  0  0  0  0  0  0  0999 V2000
   -3.3694   60.7041   -5.9062 C   0  0  0  0  0  0
   -3.2671   59.2405   -6.3430 C   0  0  0  0  0  0
   -3.9716   58.5826   -7.5226 C   0  0  0  0  0  0
   -3.2463   57.3452   -8.0290 C   0  0  0  0  0  0
   -2.3730   56.7045   -6.9537 C   0  0  0  0  0  0
   -1.3027   57.7136   -6.5256 C   0  0  0  0  0  0
   -0.4592   57.1822   -5.3517 C   0  0  0  0  0  0
    0.9916   57.6641   -5.4124 C   0  0  0  0  0  0
    1.9529   56.7970   -6.2621 C   0  0  0  0  0  0
   -1.2778   55.4051   -8.8129 C   0  0  0  0  0  0
   -0.6842   54.0451   -9.1405 C   0  0  0  0  0  0
   -1.7762   55.5500   -7.6006 N   0  0  0  0  0  0
   -4.4301   61.2265   -6.2964 O   0  0  0  0  0  0
   -2.5727   61.4803   -5.3468 O   0  0  0  0  0  0
   -3.5039   58.8355   -4.9926 O   0  0  0  0  0  0
   -4.2327   56.4088   -8.3951 O   0  0  0  0  0  0
   -1.9054   58.9261   -6.0272 O   0  0  0  0  0  0
   -0.9685   57.6211   -4.1024 O   0  0  0  0  0  0
    0.9162   58.9205   -6.0475 O   0  0  0  0  0  0
    1.4616   56.6376   -7.5840 O   0  0  0  0  0  0
   -1.3392   56.3370   -9.6165 O   0  0  0  0  0  0
   -1.7177   54.8171   -6.9408 H   0  0  0  0  0  0
   -3.4722   57.8608   -5.0455 H   0  0  0  0  0  0
   -4.7762   56.2501   -7.5977 H   0  0  0  0  0  0
   -0.5381   56.8270   -3.7169 H   0  0  0  0  0  0
    1.5391   59.4685   -5.5506 H   0  0  0  0  0  0
    1.1347   55.7191   -7.5209 H   0  0  0  0  0  0
   -1.6735   61.2365   -5.2465 H   0  0  0  0  0  0
  1 13  2  0  0  0
  1 14  1  0  0  0
  2  1  1  0  0  0
  2  3  1  0  0  0
  2 15  1  0  0  0
  2 17  1  0  0  0
  3  4  1  0  0  0
  4  5  1  0  0  0
  4 16  1  0  0  0
  5  6  1  0  0  0
  5 12  1  0  0  0
  6  7  1  0  0  0
  6 17  1  0  0  0
  7  8  1  0  0  0
  7 18  1  0  0  0
  8  9  1  0  0  0
  8 19  1  0  0  0
  9 20  1  0  0  0
 10 11  1  0  0  0
 10 12  1  0  0  0
 10 21  2  0  0  0
 12 22  1  0  0  0
 14 28  1  0  0  0
 15 23  1  0  0  0
 16 24  1  0  0  0
 18 25  1  0  0  0
 19 26  1  0  0  0
 20 27  1  0  0  0
M  END
>  <CHROM.0>
171.28908785,170.64081270,94.99350750,-65.48720402,-60.89443718,-106.22798077
153.08612588,167.36622466,150.03738713,32.50038909

>  <CHROM.1>
10.57501484,23.95313634,-179.61355323,-57.81158958,41.14945726,146.71702040
-86.54831223,154.97437184,54.97954406,138.96905809,-104.16588993,-1.67001220
57.79316240,-6.74750029,2.17501473,-0.33818671,0.67372467

>  <FORMUL>
      SIA    C11 H19 N1 O9

>  <HET>
 SIA  A 467      39

>  <HETNAM>
     SIA O-SIALIC ACID

>  <Name>
SIA.pdb

>  <RI>
0

>  <Rbt.Current_Directory>
/home/malgorzata/Desktop/rDOCK_IFD/Wyniki/12_neuraminidase

>  <Rbt.Executable>
rbdock ($Id: //depot/dev/client3/rdock/2013.1/src/exe/rbdock.cxx#4 $)

>  <Rbt.Library>
libRbt.so (2013.1, Build901 2013/11/27)

>  <Rbt.Parameter_File>
/home/malgorzata/Desktop/rDock_2013.1_src/data/scripts/soft_docking.prm

>  <Rbt.Receptor>
cavity.prm

>  <SCORE>
-58.0457

>  <SCORE.INTER>
-28.076

>  <SCORE.INTER.CONST>
1

>  <SCORE.INTER.POLAR>
-7.6541

>  <SCORE.INTER.REPUL>
0.186803

>  <SCORE.INTER.ROT>
5

>  <SCORE.INTER.VDW>
-13.3861

>  <SCORE.INTER.norm>
-1.33695

>  <SCORE.INTRA>
-5.29209

>  <SCORE.INTRA.DIHEDRAL>
-0.592382

>  <SCORE.INTRA.DIHEDRAL.0>
24.6845

>  <SCORE.INTRA.POLAR>
0.967721

>  <SCORE.INTRA.POLAR.0>
-0.967721

>  <SCORE.INTRA.REPUL>
0

>  <SCORE.INTRA.REPUL.0>
0

>  <SCORE.INTRA.VDW>
-8.46386

>  <SCORE.INTRA.VDW.0>
7.44847

>  <SCORE.INTRA.norm>
-0.252004

>  <SCORE.RESTR>
0.445668

>  <SCORE.RESTR.CAVITY>
0.445668

>  <SCORE.RESTR.norm>
0.0212223

>  <SCORE.SYSTEM>
-25.1233

>  <SCORE.SYSTEM.CONST>
0

>  <SCORE.SYSTEM.DIHEDRAL>
9.06028

>  <SCORE.SYSTEM.POLAR>
-6.74498

>  <SCORE.SYSTEM.REPUL>
0.0340601

>  <SCORE.SYSTEM.VDW>
-6.89078

>  <SCORE.SYSTEM.norm>
-1.19635

>  <SCORE.heavy>
21

>  <SCORE.norm>
-2.76408

$$$$
SIA.pdb
  rDOCK(R)          3D
libRbt.so/2013.1/901 2013/11/27
 28 28  0  0  0  0  0  0  0  0999 V2000
   -1.9680   59.5563   -4.3309 C   0  0  0  0  0  0
   -3.1259   59.2293   -5.2773 C   0  0  0  0  0  0
   -4.1881   60.1904   -5.7957 C   0  0  0  0  0  0
   -4.8048   59.7368   -7.1099 C   0  0  0  0  0  0
   -4.6954   58.2279   -7.3114 C   0  0  0  0  0  0
   -3.2126   57.8446   -7.3507 C   0  0  0  0  0  0
   -3.0229   56.3181   -7.4264 C   0  0  0  0  0  0
   -1.5790   55.9261   -7.7459 C   0  0  0  0  0  0
   -1.0254   56.4431   -9.0967 C   0  0  0  0  0  0
   -6.4147   57.2817   -8.8905 C   0  0  0  0  0  0
   -6.8270   57.2732  -10.3531 C   0  0  0  0  0  0
   -5.3356   57.9775   -8.5901 N   0  0  0  0  0  0
   -1.6198   60.7478   -4.4263 O   0  0  0  0  0  0
   -1.2574   58.8561   -3.5860 O   0  0  0  0  0  0
   -3.4529   58.0997   -4.4644 O   0  0  0  0  0  0
   -6.1737   60.0649   -7.0591 O   0  0  0  0  0  0
   -2.5443   58.2392   -6.1344 O   0  0  0  0  0  0
   -3.3380   55.6914   -6.1933 O   0  0  0  0  0  0
   -0.8166   56.5467   -6.7354 O   0  0  0  0  0  0
   -2.0768   56.8749   -9.9466 O   0  0  0  0  0  0
   -7.0089   56.6603   -8.0078 O   0  0  0  0  0  0
   -4.8600   58.4946   -9.2847 H   0  0  0  0  0  0
   -4.4290   58.1207   -4.4393 H   0  0  0  0  0  0
   -6.4972   60.0550   -7.9820 H   0  0  0  0  0  0
   -4.1865   56.1846   -6.2292 H   0  0  0  0  0  0
    0.0388   56.0979   -6.7826 H   0  0  0  0  0  0
   -2.3353   56.0132  -10.3277 H   0  0  0  0  0  0
   -0.4946   59.2240   -3.1848 H   0  0  0  0  0  0
  1 13  2  0  0  0
  1 14  1  0  0  0
  2  1  1  0  0  0
  2  3  1  0  0  0
  2 15  1  0  0  0
  2 17  1  0  0  0
  3  4  1  0  0  0
  4  5  1  0  0  0
  4 16  1  0  0  0
  5  6  1  0  0  0
  5 12  1  0  0  0
  6  7  1  0  0  0
  6 17  1  0  0  0
  7  8  1  0  0  0
  7 18  1  0  0  0
  8  9  1  0  0  0
  8 19  1  0  0  0
  9 20  1  0  0  0
 10 11  1  0  0  0
 10 12  1  0  0  0
 10 21  2  0  0  0
 12 22  1  0  0  0
 14 28  1  0  0  0
 15 23  1  0  0  0
 16 24  1  0  0  0
 18 25  1  0  0  0
 19 26  1  0  0  0
 20 27  1  0  0  0
M  END
>  <CHROM.0>
-150.58518000,88.31304218,35.00483630,-2.21410660,87.72028385,-49.05377989
-4.08332815,151.97066477,-138.93502015,89.03092825

>  <CHROM.1>
169.67947783,-27.60498810,139.23685231,161.48286448,-116.47273569,168.58710070
-60.59179290,51.35307365,-16.08443549,164.07500606,-83.35023398,-3.52339412
57.97350408,-6.92417605,0.81375205,-0.37310929,0.86827952

>  <FORMUL>
      SIA    C11 H19 N1 O9

>  <HET>
 SIA  A 467      39

>  <HETNAM>
     SIA O-SIALIC ACID

>  <Name>
SIA.pdb

>  <RI>
0

>  <Rbt.Current_Directory>
/home/malgorzata/Desktop/rDOCK_IFD/Wyniki/12_neuraminidase

>  <Rbt.Executable>
rbdock ($Id: //depot/dev/client3/rdock/2013.1/src/exe/rbdock.cxx#4 $)

>  <Rbt.Library>
libRbt.so (2013.1, Build901 2013/11/27)

>  <Rbt.Parameter_File>
/home/malgorzata/Desktop/rDock_2013.1_src/data/scripts/soft_docking.prm

>  <Rbt.Receptor>
cavity.prm

>  <SCORE>
-55.4402

>  <SCORE.INTER>
-26.058

>  <SCORE.INTER.CONST>
1

>  <SCORE.INTER.POLAR>
-7.86685

>  <SCORE.INTER.REPUL>
0.828107

>  <SCORE.INTER.ROT>
5

>  <SCORE.INTER.VDW>
-13.8513

>  <SCORE.INTER.norm>
-1.24086

>  <SCORE.INTRA>
-4.52478

>  <SCORE.INTRA.DIHEDRAL>
-4.91332

>  <SCORE.INTRA.DIHEDRAL.0>
24.6845

>  <SCORE.INTRA.POLAR>
0.967721

>  <SCORE.INTRA.POLAR.0>
-0.967721

>  <SCORE.INTRA.REPUL>
0

>  <SCORE.INTRA.REPUL.0>
0

>  <SCORE.INTRA.VDW>
-6.83237

>  <SCORE.INTRA.VDW.0>
7.44847

>  <SCORE.INTRA.norm>
-0.215466

>  <SCORE.RESTR>
0.262138

>  <SCORE.RESTR.CAVITY>
0.262138

>  <SCORE.RESTR.norm>
0.0124828

>  <SCORE.SYSTEM>
-25.1195

>  <SCORE.SYSTEM.CONST>
0

>  <SCORE.SYSTEM.DIHEDRAL>
13.7336

>  <SCORE.SYSTEM.POLAR>
-7.40862

>  <SCORE.SYSTEM.REPUL>
0.0340601

>  <SCORE.SYSTEM.VDW>
-6.96735

>  <SCORE.SYSTEM.norm>
-1.19617

>  <SCORE.heavy>
21

>  <SCORE.norm>
-2.64001

$$$$
SIA.pdb
  rDOCK(R)          3D
libRbt.so/2013.1/901 2013/11/27
 28 28  0  0  0  0  0  0  0  0999 V2000
   -6.6840   58.3944   -7.8269 C   0  0  0  0  0  0
   -5.3793   57.6002   -7.9283 C   0  0  0  0  0  0
   -4.9525   56.6755   -9.0612 C   0  0  0  0  0  0
   -3.4430   56.5155   -9.1567 C   0  0  0  0  0  0
   -2.7456   56.7894   -7.8270 C   0  0  0  0  0  0
   -3.0225   58.2395   -7.4176 C   0  0  0  0  0  0
   -2.4538   58.5533   -6.0212 C   0  0  0  0  0  0
   -2.4033   60.0558   -5.7374 C   0  0  0  0  0  0
   -3.7745   60.7509   -5.5503 C   0  0  0  0  0  0
   -0.4161   55.9212   -7.4216 C   0  0  0  0  0  0
    0.9723   55.8733   -8.0374 C   0  0  0  0  0  0
   -1.3348   56.5817   -8.0989 N   0  0  0  0  0  0
   -6.4711   59.6185   -7.7473 O   0  0  0  0  0  0
   -7.8758   58.0561   -7.7029 O   0  0  0  0  0  0
   -5.5797   57.1274   -6.5942 O   0  0  0  0  0  0
   -3.1907   55.1743   -9.5054 O   0  0  0  0  0  0
   -4.4400   58.4821   -7.3012 O   0  0  0  0  0  0
   -3.2496   57.9844   -4.9937 O   0  0  0  0  0  0
   -1.7304   60.1558   -4.5026 O   0  0  0  0  0  0
   -3.6771   61.8324   -4.6364 O   0  0  0  0  0  0
   -0.7020   55.4122   -6.3365 O   0  0  0  0  0  0
   -1.1238   56.9794   -8.9783 H   0  0  0  0  0  0
   -5.4885   56.1594   -6.6868 H   0  0  0  0  0  0
   -3.0161   55.1644  -10.4676 H   0  0  0  0  0  0
   -2.4340   57.5218   -4.7018 H   0  0  0  0  0  0
   -2.2202   59.5562   -3.9231 H   0  0  0  0  0  0
   -4.4862   61.6700   -4.1134 H   0  0  0  0  0  0
   -8.0899   57.1845   -7.4338 H   0  0  0  0  0  0
  1 13  2  0  0  0
  1 14  1  0  0  0
  2  1  1  0  0  0
  2  3  1  0  0  0
  2 15  1  0  0  0
  2 17  1  0  0  0
  3  4  1  0  0  0
  4  5  1  0  0  0
  4 16  1  0  0  0
  5  6  1  0  0  0
  5 12  1  0  0  0
  6  7  1  0  0  0
  6 17  1  0  0  0
  7  8  1  0  0  0
  7 18  1  0  0  0
  8  9  1  0  0  0
  8 19  1  0  0  0
  9 20  1  0  0  0
 10 11  1  0  0  0
 10 12  1  0  0  0
 10 21  2  0  0  0
 12 22  1  0  0  0
 14 28  1  0  0  0
 15 23  1  0  0  0
 16 24  1  0  0  0
 18 25  1  0  0  0
 19 26  1  0  0  0
 20 27  1  0  0  0
M  END
>  <CHROM.0>
157.87603917,-58.29902197,174.90421138,168.36139639,-26.72805323,97.16643465
-103.07452825,166.93073293,-160.57587459,-26.16211869

>  <CHROM.1>
15.87048823,-120.30686605,128.19192006,99.82427210,-134.04485528,165.67970295
69.54806884,122.81412793,148.15326540,-52.41706368,-136.25224634,-3.48314739
57.91219315,-7.06213449,2.50283802,-0.26118931,0.67761921

>  <FORMUL>
      SIA    C11 H19 N1 O9

>  <HET>
 SIA  A 467      39

>  <HETNAM>
     SIA O-SIALIC ACID

>  <Name>
SIA.pdb

>  <RI>
0

>  <Rbt.Current_Directory>
/home/malgorzata/Desktop/rDOCK_IFD/Wyniki/12_neuraminidase

>  <Rbt.Executable>
rbdock ($Id: //depot/dev/client3/rdock/2013.1/src/exe/rbdock.cxx#4 $)

>  <Rbt.Library>
libRbt.so (2013.1, Build901 2013/11/27)

>  <Rbt.Parameter_File>
/home/malgorzata/Desktop/rDock_2013.1_src/data/scripts/soft_docking.prm

>  <Rbt.Receptor>
cavity.prm

>  <SCORE>
-57.0404

>  <SCORE.INTER>
-26.845

>  <SCORE.INTER.CONST>
1

>  <SCORE.INTER.POLAR>
-6.53465

>  <SCORE.INTER.REPUL>
0.53547

>  <SCORE.INTER.ROT>
5

>  <SCORE.INTER.VDW>
-17.7045

>  <SCORE.INTER.norm>
-1.27833

>  <SCORE.INTRA>
-3.24821

>  <SCORE.INTRA.DIHEDRAL>
9.3731

>  <SCORE.INTRA.DIHEDRAL.0>
24.6845

>  <SCORE.INTRA.POLAR>
0.717203

>  <SCORE.INTRA.POLAR.0>
-0.967721

>  <SCORE.INTRA.REPUL>
0

>  <SCORE.INTRA.REPUL.0>
0

>  <SCORE.INTRA.VDW>
-7.56132

>  <SCORE.INTRA.VDW.0>
7.44847

>  <SCORE.INTRA.norm>
-0.154677

>  <SCORE.RESTR>
0

>  <SCORE.RESTR.CAVITY>
0

>  <SCORE.RESTR.norm>
0

>  <SCORE.SYSTEM>
-26.9472

>  <SCORE.SYSTEM.CONST>
0

>  <SCORE.SYSTEM.DIHEDRAL>
5.11787

>  <SCORE.SYSTEM.POLAR>
-6.86564

>  <SCORE.SYSTEM.REPUL>
0.0340601

>  <SCORE.SYSTEM.VDW>
-6.33325

>  <SCORE.SYSTEM.norm>
-1.2832

>  <SCORE.heavy>
21

>  <SCORE.norm>
-2.71621

$$$$
SIA.pdb
  rDOCK(R)          3D
libRbt.so/2013.1/901 2013/11/27
 28 28  0  0  0  0  0  0  0  0999 V2000
    0.2775   57.9631   -6.4937 C   0  0  0  0  0  0
   -0.9920   57.1396   -6.7254 C   0  0  0  0  0  0
   -2.4288   57.6457   -6.7208 C   0  0  0  0  0  0
   -3.3686   56.7641   -7.5289 C   0  0  0  0  0  0
   -2.8558   55.3320   -7.6539 C   0  0  0  0  0  0
   -1.5118   55.3547   -8.3891 C   0  0  0  0  0  0
   -0.8709   53.9554   -8.4430 C   0  0  0  0  0  0
    0.4743   53.9590   -9.1717 C   0  0  0  0  0  0
    1.2501   52.6188   -9.1574 C   0  0  0  0  0  0
   -4.5049   55.0060   -9.5298 C   0  0  0  0  0  0
   -5.4829   53.9967  -10.1080 C   0  0  0  0  0  0
   -3.8682   54.6428   -8.4336 N   0  0  0  0  0  0
    1.2643   57.4535   -7.0563 O   0  0  0  0  0  0
    0.5279   58.9544   -5.7832 O   0  0  0  0  0  0
   -0.5216   56.1748   -5.7812 O   0  0  0  0  0  0
   -4.5941   56.7222   -6.8359 O   0  0  0  0  0  0
   -0.5526   56.1726   -7.6872 O   0  0  0  0  0  0
   -0.6137   53.4488   -7.1430 O   0  0  0  0  0  0
    0.1421   54.2166  -10.5174 O   0  0  0  0  0  0
    2.5709   52.7997   -8.6707 O   0  0  0  0  0  0
   -4.3119   56.1246  -10.0089 O   0  0  0  0  0  0
   -4.0002   53.7425   -8.0490 H   0  0  0  0  0  0
   -1.1443   56.2738   -5.0353 H   0  0  0  0  0  0
   -4.3766   56.5819   -5.8928 H   0  0  0  0  0  0
   -1.3024   52.7756   -7.3353 H   0  0  0  0  0  0
   -0.5729   53.5922  -10.7026 H   0  0  0  0  0  0
    2.3815   52.8418   -7.7131 H   0  0  0  0  0  0
   -0.0919   59.2389   -5.1406 H   0  0  0  0  0  0
  1 13  2  0  0  0
  1 14  1  0  0  0
  2  1  1  0  0  0
  2  3  1  0  0  0
  2 15  1  0  0  0
  2 17  1  0  0  0
  3  4  1  0  0  0
  4  5  1  0  0  0
  4 16  1  0  0  0
  5  6  1  0  0  0
  5 12  1  0  0  0
  6  7  1  0  0  0
  6 17  1  0  0  0
  7  8  1  0  0  0
  7 18  1  0  0  0
  8  9  1  0  0  0
  8 19  1  0  0  0
  9 20  1  0  0  0
 10 11  1  0  0  0
 10 12  1  0  0  0
 10 21  2  0  0  0
 12 22  1  0  0  0
 14 28  1  0  0  0
 15 23  1  0  0  0
 16 24  1  0  0  0
 18 25  1  0  0  0
 19 26  1  0  0  0
 20 27  1  0  0  0
M  END
>  <CHROM.0>
-49.26030253,-60.00571414,52.81290759,-32.03114292,-109.75067404,-14.51582062
-20.87458984,86.08351200,-128.83958309,33.91200877

>  <CHROM.1>
10.98917567,-153.32509238,111.73841189,-44.78728176,44.90855215,-179.89398710
174.53795754,112.86006188,-126.43602025,-48.80715858,78.52435894,-1.38491199
55.52656316,-7.96779757,0.04314872,-0.18181951,0.62279841

>  <FORMUL>
      SIA    C11 H19 N1 O9

>  <HET>
 SIA  A 467      39

>  <HETNAM>
     SIA O-SIALIC ACID

>  <Name>
SIA.pdb

>  <RI>
0

>  <Rbt.Current_Directory>
/home/malgorzata/Desktop/rDOCK_IFD/Wyniki/12_neuraminidase

>  <Rbt.Executable>
rbdock ($Id: //depot/dev/client3/rdock/2013.1/src/exe/rbdock.cxx#4 $)

>  <Rbt.Library>
libRbt.so (2013.1, Build901 2013/11/27)

>  <Rbt.Parameter_File>
/home/malgorzata/Desktop/rDock_2013.1_src/data/scripts/soft_docking.prm

>  <Rbt.Receptor>
cavity.prm

>  <SCORE>
-62.2735

>  <SCORE.INTER>
-33.7788

>  <SCORE.INTER.CONST>
1

>  <SCORE.INTER.POLAR>
-7.50608

>  <SCORE.INTER.REPUL>
0.50166

>  <SCORE.INTER.ROT>
5

>  <SCORE.INTER.VDW>
-21.1664

>  <SCORE.INTER.norm>
-1.60851

>  <SCORE.INTRA>
-2.35337

>  <SCORE.INTRA.DIHEDRAL>
0.133914

>  <SCORE.INTRA.DIHEDRAL.0>
24.6845

>  <SCORE.INTRA.POLAR>
0.967721

>  <SCORE.INTRA.POLAR.0>
-0.967721

>  <SCORE.INTRA.REPUL>
0

>  <SCORE.INTRA.REPUL.0>
0

>  <SCORE.INTRA.VDW>
-5.6704

>  <SCORE.INTRA.VDW.0>
7.44847

>  <SCORE.INTRA.norm>
-0.112065

>  <SCORE.RESTR>
0.782587

>  <SCORE.RESTR.CAVITY>
0.782587

>  <SCORE.RESTR.norm>
0.0372661

>  <SCORE.SYSTEM>
-26.924

>  <SCORE.SYSTEM.CONST>
0

>  <SCORE.SYSTEM.DIHEDRAL>
6.02706

>  <SCORE.SYSTEM.POLAR>
-7.03205

>  <SCORE.SYSTEM.REPUL>
0.0340601

>  <SCORE.SYSTEM.VDW>
-6.19885

>  <SCORE.SYSTEM.norm>
-1.28209

>  <SCORE.heavy>
21

>  <SCORE.norm>
-2.96541

$$$$
SIA.pdb
  rDOCK(R)          3D
libRbt.so/2013.1/901 2013/11/27
 28 28  0  0  0  0  0  0  0  0999 V2000
   -4.1237   58.2959   -3.8371 C   0  0  0  0  0  0
   -2.8592   58.2985   -4.7000 C   0  0  0  0  0  0
   -2.6503   57.5777   -6.0256 C   0  0  0  0  0  0
   -1.5718   58.2203   -6.8843 C   0  0  0  0  0  0
   -0.5662   59.0138   -6.0543 C   0  0  0  0  0  0
   -1.3079   60.1458   -5.3362 C   0  0  0  0  0  0
   -0.3785   60.9152   -4.3790 C   0  0  0  0  0  0
   -1.1555   61.7261   -3.3400 C   0  0  0  0  0  0
   -0.2950   62.5333   -2.3369 C   0  0  0  0  0  0
    0.3323   60.6212   -7.7729 C   0  0  0  0  0  0
    1.5429   60.8874   -8.6520 C   0  0  0  0  0  0
    0.3805   59.5384   -7.0218 N   0  0  0  0  0  0
   -4.7533   59.3648   -3.9423 O   0  0  0  0  0  0
   -4.5732   57.4987   -2.9930 O   0  0  0  0  0  0
   -2.0828   57.9961   -3.5384 O   0  0  0  0  0  0
   -0.8735   57.1759   -7.5211 O   0  0  0  0  0  0
   -2.3554   59.6237   -4.4925 O   0  0  0  0  0  0
    0.4598   60.0359   -3.6465 O   0  0  0  0  0  0
   -1.8766   62.6690   -4.1005 O   0  0  0  0  0  0
   -0.4247   62.0152   -1.0220 O   0  0  0  0  0  0
   -0.6724   61.3344   -7.7567 O   0  0  0  0  0  0
    1.1867   58.9676   -7.0119 H   0  0  0  0  0  0
   -2.2948   57.0578   -3.3690 H   0  0  0  0  0  0
   -1.4223   56.8959   -8.2806 H   0  0  0  0  0  0
    1.1472   60.2268   -4.3215 H   0  0  0  0  0  0
   -2.5327   63.0139   -3.4793 H   0  0  0  0  0  0
    0.2682   61.3271   -1.0548 H   0  0  0  0  0  0
   -5.3327   57.7248   -2.4929 H   0  0  0  0  0  0
  1 13  2  0  0  0
  1 14  1  0  0  0
  2  1  1  0  0  0
  2  3  1  0  0  0
  2 15  1  0  0  0
  2 17  1  0  0  0
  3  4  1  0  0  0
  4  5  1  0  0  0
  4 16  1  0  0  0
  5  6  1  0  0  0
  5 12  1  0  0  0
  6  7  1  0  0  0
  6 17  1  0  0  0
  7  8  1  0  0  0
  7 18  1  0  0  0
  8  9  1  0  0  0
  8 19  1  0  0  0
  9 20  1  0  0  0
 10 11  1  0  0  0
 10 12  1  0  0  0
 10 21  2  0  0  0
 12 22  1  0  0  0
 14 28  1  0  0  0
 15 23  1  0  0  0
 16 24  1  0  0  0
 18 25  1  0  0  0
 19 26  1  0  0  0
 20 27  1  0  0  0
M  END
>  <CHROM.0>
-125.81130785,-95.80486205,51.59743976,-159.04738348,84.91866468,76.25672646
142.10861295,130.97217139,-171.87940205,143.56592728

>  <CHROM.1>
173.07781821,-104.03205775,73.50976412,79.67968394,84.25086186,-161.55955729
-179.92161275,97.11440196,-112.83225045,165.43868151,86.72005689,-1.42583768
59.78614285,-4.96155420,2.41587117,0.74914058,0.97109626

>  <FORMUL>
      SIA    C11 H19 N1 O9

>  <HET>
 SIA  A 467      39

>  <HETNAM>
     SIA O-SIALIC ACID

>  <Name>
SIA.pdb

>  <RI>
0

>  <Rbt.Current_Directory>
/home/malgorzata/Desktop/rDOCK_IFD/Wyniki/12_neuraminidase

>  <Rbt.Executable>
rbdock ($Id: //depot/dev/client3/rdock/2013.1/src/exe/rbdock.cxx#4 $)

>  <Rbt.Library>
libRbt.so (2013.1, Build901 2013/11/27)

>  <Rbt.Parameter_File>
/home/malgorzata/Desktop/rDock_2013.1_src/data/scripts/soft_docking.prm

>  <Rbt.Receptor>
cavity.prm

>  <SCORE>
-52.1523

>  <SCORE.INTER>
-24.8241

>  <SCORE.INTER.CONST>
1

>  <SCORE.INTER.POLAR>
-5.79839

>  <SCORE.INTER.REPUL>
0.0450409

>  <SCORE.INTER.ROT>
5

>  <SCORE.INTER.VDW>
-15.7347

>  <SCORE.INTER.norm>
-1.1821

>  <SCORE.INTRA>
-5.97261

>  <SCORE.INTRA.DIHEDRAL>
-5.20862

>  <SCORE.INTRA.DIHEDRAL.0>
24.6845

>  <SCORE.INTRA.POLAR>
0.967721

>  <SCORE.INTRA.POLAR.0>
-0.967721

>  <SCORE.INTRA.REPUL>
0

>  <SCORE.INTRA.REPUL.0>
0

>  <SCORE.INTRA.VDW>
-8.22114

>  <SCORE.INTRA.VDW.0>
7.44847

>  <SCORE.INTRA.norm>
-0.28441

>  <SCORE.RESTR>
0.537639

>  <SCORE.RESTR.CAVITY>
0.537639

>  <SCORE.RESTR.norm>
0.0256019

>  <SCORE.SYSTEM>
-21.8933

>  <SCORE.SYSTEM.CONST>
0

>  <SCORE.SYSTEM.DIHEDRAL>
14.5458

>  <SCORE.SYSTEM.POLAR>
-7.49808

>  <SCORE.SYSTEM.REPUL>
0.624706

>  <SCORE.SYSTEM.VDW>
-6.79622

>  <SCORE.SYSTEM.norm>
-1.04254

>  <SCORE.heavy>
21

>  <SCORE.norm>
-2.48344

$$$$
SIA.pdb
  rDOCK(R)          3D
libRbt.so/2013.1/901 2013/11/27
 28 28  0  0  0  0  0  0  0  0999 V2000
   -6.1276   58.4460   -8.5362 C   0  0  0  0  0  0
   -5.1810   57.2467   -8.4417 C   0  0  0  0  0  0
   -4.8366   56.2588   -9.5489 C   0  0  0  0  0  0
   -3.4913   55.5809   -9.3388 C   0  0  0  0  0  0
   -3.0757   55.5600   -7.8704 C   0  0  0  0  0  0
   -2.9367   57.0046   -7.3794 C   0  0  0  0  0  0
   -2.6407   57.0645   -5.8692 C   0  0  0  0  0  0
   -1.1551   57.2826   -5.5755 C   0  0  0  0  0  0
   -0.8356   58.1181   -4.3114 C   0  0  0  0  0  0
   -0.6286   55.2252   -8.3644 C   0  0  0  0  0  0
    0.5275   54.2705   -8.1168 C   0  0  0  0  0  0
   -1.7950   54.8765   -7.8576 N   0  0  0  0  0  0
   -7.2343   58.1213   -9.0053 O   0  0  0  0  0  0
   -5.9733   59.6662   -8.3424 O   0  0  0  0  0  0
   -5.8363   56.8423   -7.2372 O   0  0  0  0  0  0
   -3.6303   54.2455   -9.7646 O   0  0  0  0  0  0
   -4.1752   57.7268   -7.5411 O   0  0  0  0  0  0
   -3.3277   58.1373   -5.2449 O   0  0  0  0  0  0
   -0.6518   55.9872   -5.3388 O   0  0  0  0  0  0
   -1.4221   57.5389   -3.1560 O   0  0  0  0  0  0
   -0.5317   56.2615   -9.0238 O   0  0  0  0  0  0
   -1.8828   54.0576   -7.3121 H   0  0  0  0  0  0
   -6.1696   55.9507   -7.4557 H   0  0  0  0  0  0
   -3.7650   54.2741  -10.7329 H   0  0  0  0  0  0
   -4.1128   57.5473   -5.2329 H   0  0  0  0  0  0
    0.1204   55.9297   -5.9182 H   0  0  0  0  0  0
   -0.9932   58.0868   -2.4701 H   0  0  0  0  0  0
   -6.5860   60.2785   -8.6998 H   0  0  0  0  0  0
  1 13  2  0  0  0
  1 14  1  0  0  0
  2  1  1  0  0  0
  2  3  1  0  0  0
  2 15  1  0  0  0
  2 17  1  0  0  0
  3  4  1  0  0  0
  4  5  1  0  0  0
  4 16  1  0  0  0
  5  6  1  0  0  0
  5 12  1  0  0  0
  6  7  1  0  0  0
  6 17  1  0  0  0
  7  8  1  0  0  0
  7 18  1  0  0  0
  8  9  1  0  0  0
  8 19  1  0  0  0
  9 20  1  0  0  0
 10 11  1  0  0  0
 10 12  1  0  0  0
 10 21  2  0  0  0
 12 22  1  0  0  0
 14 28  1  0  0  0
 15 23  1  0  0  0
 16 24  1  0  0  0
 18 25  1  0  0  0
 19 26  1  0  0  0
 20 27  1  0  0  0
M  END
>  <CHROM.0>
58.65613737,-49.41952885,169.30935858,5.21727707,55.11469311,73.12913998
-155.88852714,141.88793012,-118.93039548,-12.98851141

>  <CHROM.1>
160.95895953,51.23925650,120.37565844,67.18730826,65.91976172,99.63664288
146.65546980,81.17856081,56.91130152,129.04205211,170.44022366,-3.10851202
56.74913332,-7.38066105,2.89749319,0.48409907,-2.16465067

>  <FORMUL>
      SIA    C11 H19 N1 O9

>  <HET>
 SIA  A 467      39

>  <HETNAM>
     SIA O-SIALIC ACID

>  <Name>
SIA.pdb

>  <RI>
0

>  <Rbt.Current_Directory>
/home/malgorzata/Desktop/rDOCK_IFD/Wyniki/12_neuraminidase

>  <Rbt.Executable>
rbdock ($Id: //depot/dev/client3/rdock/2013.1/src/exe/rbdock.cxx#4 $)

>  <Rbt.Library>
libRbt.so (2013.1, Build901 2013/11/27)

>  <Rbt.Parameter_File>
/home/malgorzata/Desktop/rDock_2013.1_src/data/scripts/soft_docking.prm

>  <Rbt.Receptor>
cavity.prm

>  <SCORE>
-59.5699

>  <SCORE.INTER>
-27.4602

>  <SCORE.INTER.CONST>
1

>  <SCORE.INTER.POLAR>
-7.36255

>  <SCORE.INTER.REPUL>
1.03048

>  <SCORE.INTER.ROT>
5

>  <SCORE.INTER.VDW>
-17.98

>  <SCORE.INTER.norm>
-1.30763

>  <SCORE.INTRA>
-5.34408

>  <SCORE.INTRA.DIHEDRAL>
3.44009

>  <SCORE.INTRA.DIHEDRAL.0>
24.6845

>  <SCORE.INTRA.POLAR>
0.967721

>  <SCORE.INTRA.POLAR.0>
-0.967721

>  <SCORE.INTRA.REPUL>
0

>  <SCORE.INTRA.REPUL.0>
0

>  <SCORE.INTRA.VDW>
-9.32235

>  <SCORE.INTRA.VDW.0>
7.44847

>  <SCORE.INTRA.norm>
-0.25448

>  <SCORE.RESTR>
0

>  <SCORE.RESTR.CAVITY>
0

>  <SCORE.RESTR.norm>
0

>  <SCORE.SYSTEM>
-26.7656

>  <SCORE.SYSTEM.CONST>
0

>  <SCORE.SYSTEM.DIHEDRAL>
7.01714

>  <SCORE.SYSTEM.POLAR>
-6.9195

>  <SCORE.SYSTEM.REPUL>
0.0340601

>  <SCORE.SYSTEM.VDW>
-6.91816

>  <SCORE.SYSTEM.norm>
-1.27455

>  <SCORE.heavy>
21

>  <SCORE.norm>
-2.83666

$$$$
SIA.pdb
  rDOCK(R)          3D
libRbt.so/2013.1/901 2013/11/27
 28 28  0  0  0  0  0  0  0  0999 V2000
   -3.0853   58.7105   -5.0920 C   0  0  0  0  0  0
   -1.8240   58.0171   -5.6133 C   0  0  0  0  0  0
   -1.7518   56.8837   -6.6285 C   0  0  0  0  0  0
   -0.4147   56.8212   -7.3507 C   0  0  0  0  0  0
    0.7118   57.4577   -6.5410 C   0  0  0  0  0  0
    0.3832   58.9381   -6.3231 C   0  0  0  0  0  0
    1.4154   59.6192   -5.4053 C   0  0  0  0  0  0
    1.7872   61.0226   -5.8881 C   0  0  0  0  0  0
    0.7083   62.1135   -5.6779 C   0  0  0  0  0  0
    2.9521   56.5243   -7.2151 C   0  0  0  0  0  0
    3.9971   56.5858   -8.3167 C   0  0  0  0  0  0
    1.8959   57.2994   -7.3658 N   0  0  0  0  0  0
   -3.5667   59.4852   -5.9394 O   0  0  0  0  0  0
   -3.6441   58.7309   -3.9796 O   0  0  0  0  0  0
   -1.3690   57.8632   -4.2669 O   0  0  0  0  0  0
   -0.1018   55.4589   -7.5243 O   0  0  0  0  0  0
   -0.8774   59.0924   -5.6384 O   0  0  0  0  0  0
    0.9179   59.7751   -4.0858 O   0  0  0  0  0  0
    2.8887   61.3873   -5.0873 O   0  0  0  0  0  0
   -0.4840   61.5555   -5.1475 O   0  0  0  0  0  0
    3.0618   55.8271   -6.2051 O   0  0  0  0  0  0
    1.7868   57.8499   -8.1788 H   0  0  0  0  0  0
   -1.7266   56.9911   -4.0111 H   0  0  0  0  0  0
    0.6159   55.4199   -8.1874 H   0  0  0  0  0  0
    1.8452   59.9651   -3.8239 H   0  0  0  0  0  0
    3.4410   60.5935   -5.0785 H   0  0  0  0  0  0
   -0.5610   62.0920   -4.3346 H   0  0  0  0  0  0
   -4.3837   59.2884   -3.8369 H   0  0  0  0  0  0
  1 13  2  0  0  0
  1 14  1  0  0  0
  2  1  1  0  0  0
  2  3  1  0  0  0
  2 15  1  0  0  0
  2 17  1  0  0  0
  3  4  1  0  0  0
  4  5  1  0  0  0
  4 16  1  0  0  0
  5  6  1  0  0  0
  5 12  1  0  0  0
  6  7  1  0  0  0
  6 17  1  0  0  0
  7  8  1  0  0  0
  7 18  1  0  0  0
  8  9  1  0  0  0
  8 19  1  0  0  0
  9 20  1  0  0  0
 10 11  1  0  0  0
 10 12  1  0  0  0
 10 21  2  0  0  0
 12 22  1  0  0  0
 14 28  1  0  0  0
 15 23  1  0  0  0
 16 24  1  0  0  0
 18 25  1  0  0  0
 19 26  1  0  0  0
 20 27  1  0  0  0
M  END
>  <CHROM.0>
81.97377189,173.12463307,49.82818370,-55.36579920,68.95847110,-72.98901820
53.60911767,-32.55458529,21.20362420,24.97839890

>  <CHROM.1>
174.48067453,-74.79055226,90.92813661,165.01010757,-109.13684888,139.03764843
73.28530467,165.87217027,-4.23144521,44.03823555,122.63672503,0.15937627
58.56026216,-5.91704721,2.55911590,0.21550900,0.38798337

>  <FORMUL>
      SIA    C11 H19 N1 O9

>  <HET>
 SIA  A 467      39

>  <HETNAM>
     SIA O-SIALIC ACID

>  <Name>
SIA.pdb

>  <RI>
0

>  <Rbt.Current_Directory>
/home/malgorzata/Desktop/rDOCK_IFD/Wyniki/12_neuraminidase

>  <Rbt.Executable>
rbdock ($Id: //depot/dev/client3/rdock/2013.1/src/exe/rbdock.cxx#4 $)

>  <Rbt.Library>
libRbt.so (2013.1, Build901 2013/11/27)

>  <Rbt.Parameter_File>
/home/malgorzata/Desktop/rDock_2013.1_src/data/scripts/soft_docking.prm

>  <Rbt.Receptor>
cavity.prm

>  <SCORE>
-62.0724

>  <SCORE.INTER>
-36.8334

>  <SCORE.INTER.CONST>
1

>  <SCORE.INTER.POLAR>
-7.80903

>  <SCORE.INTER.REPUL>
0.155461

>  <SCORE.INTER.ROT>
5

>  <SCORE.INTER.VDW>
-21.46

>  <SCORE.INTER.norm>
-1.75397

>  <SCORE.INTRA>
-2.69358

>  <SCORE.INTRA.DIHEDRAL>
0.809758

>  <SCORE.INTRA.DIHEDRAL.0>
24.6845

>  <SCORE.INTRA.POLAR>
0.967721

>  <SCORE.INTRA.POLAR.0>
-0.967721

>  <SCORE.INTRA.REPUL>
0

>  <SCORE.INTRA.REPUL.0>
0

>  <SCORE.INTRA.VDW>
-6.14578

>  <SCORE.INTRA.VDW.0>
7.44847

>  <SCORE.INTRA.norm>
-0.128266

>  <SCORE.RESTR>
0.236117

>  <SCORE.RESTR.CAVITY>
0.236117

>  <SCORE.RESTR.norm>
0.0112436

>  <SCORE.SYSTEM>
-22.7815

>  <SCORE.SYSTEM.CONST>
0

>  <SCORE.SYSTEM.DIHEDRAL>
5.86389

>  <SCORE.SYSTEM.POLAR>
-6.4658

>  <SCORE.SYSTEM.REPUL>
0.564074

>  <SCORE.SYSTEM.VDW>
-6.55008

>  <SCORE.SYSTEM.norm>
-1.08483

>  <SCORE.heavy>
21

>  <SCORE.norm>
-2.95583

$$$$
SIA.pdb
  rDOCK(R)          3D
libRbt.so/2013.1/901 2013/11/27
 28 28  0  0  0  0  0  0  0  0999 V2000
    3.5318   56.4932   -7.6900 C   0  0  0  0  0  0
    3.0485   57.5747   -6.7204 C   0  0  0  0  0  0
    3.5454   59.0116   -6.6251 C   0  0  0  0  0  0
    2.5184   59.9529   -6.0146 C   0  0  0  0  0  0
    1.5202   59.2213   -5.1214 C   0  0  0  0  0  0
    0.7531   58.2048   -5.9731 C   0  0  0  0  0  0
   -0.1868   57.3389   -5.1137 C   0  0  0  0  0  0
   -1.5032   58.0499   -4.7941 C   0  0  0  0  0  0
   -2.7087   57.6657   -5.6872 C   0  0  0  0  0  0
   -0.3469   60.9094   -5.2151 C   0  0  0  0  0  0
   -1.0993   61.9174   -4.3623 C   0  0  0  0  0  0
    0.6373   60.2608   -4.6238 N   0  0  0  0  0  0
    4.0147   56.9878   -8.7255 O   0  0  0  0  0  0
    3.4393   55.2516   -7.6909 O   0  0  0  0  0  0
    3.1864   56.6483   -5.6404 O   0  0  0  0  0  0
    3.2239   60.8685   -5.2097 O   0  0  0  0  0  0
    1.6552   57.2651   -6.5937 O   0  0  0  0  0  0
   -0.5395   56.1354   -5.7769 O   0  0  0  0  0  0
   -1.8205   57.6270   -3.4872 O   0  0  0  0  0  0
   -3.8046   58.5405   -5.4681 O   0  0  0  0  0  0
   -0.5897   60.7026   -6.4052 O   0  0  0  0  0  0
    0.8312   60.4039   -3.6658 H   0  0  0  0  0  0
    3.4756   57.2146   -4.8991 H   0  0  0  0  0  0
    2.5533   61.4329   -4.7760 H   0  0  0  0  0  0
    0.1776   55.7105   -5.2575 H   0  0  0  0  0  0
   -2.6664   58.0584   -3.3035 H   0  0  0  0  0  0
   -3.4144   59.3697   -5.8068 H   0  0  0  0  0  0
    2.6789   54.8382   -7.3317 H   0  0  0  0  0  0
  1 13  2  0  0  0
  1 14  1  0  0  0
  2  1  1  0  0  0
  2  3  1  0  0  0
  2 15  1  0  0  0
  2 17  1  0  0  0
  3  4  1  0  0  0
  4  5  1  0  0  0
  4 16  1  0  0  0
  5  6  1  0  0  0
  5 12  1  0  0  0
  6  7  1  0  0  0
  6 17  1  0  0  0
  7  8  1  0  0  0
  7 18  1  0  0  0
  8  9  1  0  0  0
  8 19  1  0  0  0
  9 20  1  0  0  0
 10 11  1  0  0  0
 10 12  1  0  0  0
 10 21  2  0  0  0
 12 22  1  0  0  0
 14 28  1  0  0  0
 15 23  1  0  0  0
 16 24  1  0  0  0
 18 25  1  0  0  0
 19 26  1  0  0  0
 20 27  1  0  0  0
M  END
>  <CHROM.0>
154.36579994,46.52278009,-11.68196796,138.46913654,45.18805443,158.79285612
-117.19564442,128.33354253,-174.85138090,-63.17519952

>  <CHROM.1>
33.56917989,-25.10849429,145.12511930,-176.42676673,76.05754269,81.04865920
98.81149923,97.14502029,-169.69801498,-178.30489413,65.67424641,0.85130425
58.37927102,-5.83870865,0.45573009,-0.29930318,-2.87045257

>  <FORMUL>
      SIA    C11 H19 N1 O9

>  <HET>
 SIA  A 467      39

>  <HETNAM>
     SIA O-SIALIC ACID

>  <Name>
SIA.pdb

>  <RI>
0

>  <Rbt.Current_Directory>
/home/malgorzata/Desktop/rDOCK_IFD/Wyniki/12_neuraminidase

>  <Rbt.Executable>
rbdock ($Id: //depot/dev/client3/rdock/2013.1/src/exe/rbdock.cxx#4 $)

>  <Rbt.Library>
libRbt.so (2013.1, Build901 2013/11/27)

>  <Rbt.Parameter_File>
/home/malgorzata/Desktop/rDock_2013.1_src/data/scripts/soft_docking.prm

>  <Rbt.Receptor>
cavity.prm

>  <SCORE>
-64.6524

>  <SCORE.INTER>
-37.5046

>  <SCORE.INTER.CONST>
1

>  <SCORE.INTER.POLAR>
-8.37527

>  <SCORE.INTER.REPUL>
0.642814

>  <SCORE.INTER.ROT>
5

>  <SCORE.INTER.VDW>
-22.6428

>  <SCORE.INTER.norm>
-1.78593

>  <SCORE.INTRA>
-4.23031

>  <SCORE.INTRA.DIHEDRAL>
3.18902

>  <SCORE.INTRA.DIHEDRAL.0>
24.6845

>  <SCORE.INTRA.POLAR>
0.96405

>  <SCORE.INTRA.POLAR.0>
-0.967721

>  <SCORE.INTRA.REPUL>
0

>  <SCORE.INTRA.REPUL.0>
0

>  <SCORE.INTRA.VDW>
-8.14588

>  <SCORE.INTRA.VDW.0>
7.44847

>  <SCORE.INTRA.norm>
-0.201443

>  <SCORE.RESTR>
0.954473

>  <SCORE.RESTR.CAVITY>
0.954473

>  <SCORE.RESTR.norm>
0.0454511

>  <SCORE.SYSTEM>
-23.872

>  <SCORE.SYSTEM.CONST>
0

>  <SCORE.SYSTEM.DIHEDRAL>
12.6084

>  <SCORE.SYSTEM.POLAR>
-6.89156

>  <SCORE.SYSTEM.REPUL>
0.0340601

>  <SCORE.SYSTEM.VDW>
-6.91514

>  <SCORE.SYSTEM.norm>
-1.13676

>  <SCORE.heavy>
21

>  <SCORE.norm>
-3.07869

$$$$
