DPC.pdb
 OpenBabel10022020033D

 55 56  0  0  1  0  0  0  0  0999 V2000
   -2.4160   58.3090   -5.4640 C   0  0  0  0  0  0  0  0  0  0  0  0
   -3.3710   59.0640   -5.3230 O   0  0  0  0  0  0  0  0  0  0  0  0
   -1.5990   58.1890   -4.5610 O   0  0  0  0  0  0  0  0  0  0  0  0
   -2.3440   57.4690   -6.6730 C   0  0  0  0  0  0  0  0  0  0  0  0
   -1.4120   56.5180   -6.7960 C   0  0  0  0  0  0  0  0  0  0  0  0
   -1.3790   55.6270   -8.0080 C   0  0  1  0  0  0  0  0  0  0  0  0
   -2.2120   56.1910   -9.1560 C   0  0  1  0  0  0  0  0  0  0  0  0
   -2.4990   55.1260  -10.1100 N   0  0  0  0  0  0  0  0  0  0  0  0
   -2.1370   55.1410  -11.4020 C   0  0  0  0  0  0  0  0  0  0  0  0
   -1.5630   56.1000  -11.8890 O   0  0  0  0  0  0  0  0  0  0  0  0
   -2.4430   53.8710  -12.2170 C   0  0  0  0  0  0  0  0  0  0  0  0
   -3.5280   56.7290   -8.5990 C   0  0  1  0  0  0  0  0  0  0  0  0
   -3.2930   57.6710   -7.5870 O   0  0  0  0  0  0  0  0  0  0  0  0
   -4.2550   57.5050   -9.6740 C   0  0  0  0  0  0  0  0  0  0  0  0
   -3.7430   58.2630   -9.9970 O   0  0  0  0  0  0  0  0  0  0  0  0
   -5.3800   57.0300  -10.1910 N   0  0  0  0  0  0  0  0  0  0  0  0
   -5.9710   57.8100  -11.3010 C   0  0  0  0  0  0  0  0  0  0  0  0
   -5.3950   57.4170  -12.6650 C   0  0  0  0  0  0  0  0  0  0  0  0
   -6.0130   58.3010  -13.7300 C   0  0  0  0  0  0  0  0  0  0  0  0
   -5.5860   59.6390  -13.8840 C   0  0  0  0  0  0  0  0  0  0  0  0
   -7.0380   57.8160  -14.5550 C   0  0  0  0  0  0  0  0  0  0  0  0
   -6.2020   60.4850  -14.8230 C   0  0  0  0  0  0  0  0  0  0  0  0
   -7.6510   58.6560  -15.4900 C   0  0  0  0  0  0  0  0  0  0  0  0
   -7.2490   59.9920  -15.6230 C   0  0  0  0  0  0  0  0  0  0  0  0
   -6.0810   55.8520   -9.6850 C   0  0  0  0  0  0  0  0  0  0  0  0
   -6.9620   56.1710   -8.4650 C   0  0  0  0  0  0  0  0  0  0  0  0
   -7.8370   57.4310   -8.6020 C   0  0  0  0  0  0  0  0  0  0  0  0
   -0.0140   55.4590   -8.4300 N   0  0  0  0  0  0  0  0  0  0  0  0
   -0.8674   57.6128   -4.6647 H   0  0  0  0  0  0  0  0  0  0  0  0
   -0.7079   56.3939   -6.0518 H   0  0  0  0  0  0  0  0  0  0  0  0
   -1.8050   54.6828   -7.7399 H   0  0  0  0  0  0  0  0  0  0  0  0
   -1.6728   56.9768   -9.6424 H   0  0  0  0  0  0  0  0  0  0  0  0
   -2.9935   54.3401   -9.7828 H   0  0  0  0  0  0  0  0  0  0  0  0
   -2.9488   53.1617  -11.5957 H   0  0  0  0  0  0  0  0  0  0  0  0
   -1.5275   53.4456  -12.5716 H   0  0  0  0  0  0  0  0  0  0  0  0
   -3.0654   54.1231  -13.0500 H   0  0  0  0  0  0  0  0  0  0  0  0
   -4.0828   55.8871   -8.2409 H   0  0  0  0  0  0  0  0  0  0  0  0
   -5.7763   58.8486  -11.1325 H   0  0  0  0  0  0  0  0  0  0  0  0
   -7.0210   57.6049  -11.3199 H   0  0  0  0  0  0  0  0  0  0  0  0
   -5.6247   56.3924  -12.8705 H   0  0  0  0  0  0  0  0  0  0  0  0
   -4.3324   57.5425  -12.6604 H   0  0  0  0  0  0  0  0  0  0  0  0
   -4.8141   59.9990  -13.3013 H   0  0  0  0  0  0  0  0  0  0  0  0
   -7.3418   56.8333  -14.4716 H   0  0  0  0  0  0  0  0  0  0  0  0
   -5.8877   61.4627  -14.9249 H   0  0  0  0  0  0  0  0  0  0  0  0
   -8.4072   58.2883  -16.0883 H   0  0  0  0  0  0  0  0  0  0  0  0
   -7.7180   60.6102  -16.3034 H   0  0  0  0  0  0  0  0  0  0  0  0
   -5.3569   55.1165   -9.4027 H   0  0  0  0  0  0  0  0  0  0  0  0
   -6.7211   55.4943  -10.4643 H   0  0  0  0  0  0  0  0  0  0  0  0
   -6.3208   56.3033   -7.6187 H   0  0  0  0  0  0  0  0  0  0  0  0
   -7.6385   55.3483   -8.3629 H   0  0  0  0  0  0  0  0  0  0  0  0
   -7.2095   58.2912   -8.7079 H   0  0  0  0  0  0  0  0  0  0  0  0
   -8.4459   57.5390   -7.7288 H   0  0  0  0  0  0  0  0  0  0  0  0
   -8.4635   57.3381   -9.4644 H   0  0  0  0  0  0  0  0  0  0  0  0
    0.3781   56.3663   -8.6820 H   0  0  0  0  0  0  0  0  0  0  0  0
    0.0179   54.8383   -9.2388 H   0  0  0  0  0  0  0  0  0  0  0  0
  1  2  2  0  0  0  0
  1  3  1  0  0  0  0
  1  4  1  0  0  0  0
  3 29  1  0  0  0  0
  4  5  2  0  0  0  0
  4 13  1  0  0  0  0
  5  6  1  0  0  0  0
  5 30  1  0  0  0  0
  6  7  1  0  0  0  0
  6 28  1  0  0  0  0
  6 31  1  1  0  0  0
  7  8  1  0  0  0  0
  7 12  1  0  0  0  0
  7 32  1  6  0  0  0
  8  9  1  0  0  0  0
  8 33  1  0  0  0  0
  9 10  2  0  0  0  0
  9 11  1  0  0  0  0
 11 34  1  0  0  0  0
 11 35  1  0  0  0  0
 11 36  1  0  0  0  0
 12 13  1  0  0  0  0
 12 14  1  0  0  0  0
 12 37  1  1  0  0  0
 14 15  2  0  0  0  0
 14 16  1  0  0  0  0
 16 17  1  0  0  0  0
 16 25  1  0  0  0  0
 17 18  1  0  0  0  0
 17 38  1  0  0  0  0
 17 39  1  0  0  0  0
 18 19  1  0  0  0  0
 18 40  1  0  0  0  0
 18 41  1  0  0  0  0
 19 20  2  0  0  0  0
 19 21  1  0  0  0  0
 20 22  1  0  0  0  0
 20 42  1  0  0  0  0
 21 23  2  0  0  0  0
 21 43  1  0  0  0  0
 22 24  2  0  0  0  0
 22 44  1  0  0  0  0
 23 24  1  0  0  0  0
 23 45  1  0  0  0  0
 24 46  1  0  0  0  0
 25 26  1  0  0  0  0
 25 47  1  0  0  0  0
 25 48  1  0  0  0  0
 26 27  1  0  0  0  0
 26 49  1  0  0  0  0
 26 50  1  0  0  0  0
 27 51  1  0  0  0  0
 27 52  1  0  0  0  0
 27 53  1  0  0  0  0
 28 54  1  0  0  0  0
 28 55  1  0  0  0  0
M  END
>  <HET>
 DPC  A 466      28

>  <HETNAM>
     DPC 5-ACETYLAMINO-4-AMINO-6-(PHENETHYL-PROPYL-CARBAMOYL)-5,
   2 DPC 6-DIHYDRO-4H-PYRAN-2-CARBOXYLIC ACID

>  <FORMUL>
      DPC    C20 H27 N3 O5

$$$$
