@<TRIPOS>MOLECULE
pose3.pdb
 40 40 0 0 0
SMALL
GASTEIGER

@<TRIPOS>ATOM
      1  C1        -1.9680   59.5560   -4.3310 C.2     1  LIG1        0.3651
      2  C2        -3.1260   59.2290   -5.2770 C.3     1  LIG1        0.2704
      3  C3        -4.1880   60.1900   -5.7960 C.3     1  LIG1        0.0403
      4  C4        -4.8050   59.7370   -7.1100 C.3     1  LIG1        0.0815
      5  C5        -4.6950   58.2280   -7.3110 C.3     1  LIG1        0.0779
      6  C6        -3.2130   57.8450   -7.3510 C.3     1  LIG1        0.1114
      7  C7        -3.0230   56.3180   -7.4260 C.3     1  LIG1        0.1111
      8  C8        -1.5790   55.9260   -7.7460 C.3     1  LIG1        0.1065
      9  C9        -1.0250   56.4430   -9.0970 C.3     1  LIG1        0.0727
     10  C10       -6.4150   57.2820   -8.8900 C.2     1  LIG1        0.2103
     11  C11       -6.8270   57.2730  -10.3530 C.3     1  LIG1        0.0122
     12  N1        -5.3360   57.9770   -8.5900 N.am    1  LIG1       -0.3076
     13  O1        -1.6200   60.7480   -4.4260 O.2     1  LIG1       -0.2449
     14  O2        -1.2570   58.8560   -3.5860 O.3     1  LIG1       -0.4769
     15  O3        -3.4530   58.1000   -4.4640 O.3     1  LIG1       -0.3561
     16  O4        -6.1740   60.0650   -7.0590 O.3     1  LIG1       -0.3897
     17  O5        -2.5440   58.2390   -6.1340 O.3     1  LIG1       -0.3321
     18  O6        -3.3380   55.6910   -6.1930 O.3     1  LIG1       -0.3865
     19  O7        -0.8170   56.5470   -6.7350 O.3     1  LIG1       -0.3869
     20  O8        -2.0770   56.8750   -9.9470 O.3     1  LIG1       -0.3924
     21  O9        -7.0090   56.6600   -8.0080 O.2     1  LIG1       -0.2761
     22  H1        -4.8600   58.4950   -9.2850 H       1  LIG1        0.1491
     23  H2        -4.4290   58.1210   -4.4390 H       1  LIG1        0.2133
     24  H3        -6.4970   60.0550   -7.9820 H       1  LIG1        0.2099
     25  H4        -4.1860   56.1850   -6.2290 H       1  LIG1        0.2100
     26  H5         0.0390   56.0980   -6.7830 H       1  LIG1        0.2100
     27  H6        -2.3350   56.0130  -10.3280 H       1  LIG1        0.2095
     28  H7        -0.4950   59.2240   -3.1850 H       1  LIG1        0.2952
     29 H          -3.7376   61.1494   -5.9432 H       1  LIG1        0.0349
     30 H          -4.9719   60.2253   -5.0686 H       1  LIG1        0.0349
     31 H          -4.2878   60.2164   -7.9147 H       1  LIG1        0.0614
     32 H          -5.1530   57.6578   -6.5300 H       1  LIG1        0.0550
     33 H          -2.8127   58.3367   -8.2129 H       1  LIG1        0.0643
     34 H          -3.6812   55.9957   -8.2056 H       1  LIG1        0.0646
     35 H          -1.5317   54.8585   -7.8019 H       1  LIG1        0.0643
     36 H          -0.4871   55.6539   -9.5795 H       1  LIG1        0.0584
     37 H          -0.3792   57.2742   -8.9047 H       1  LIG1        0.0584
     38 H          -6.1561   57.8874  -10.9163 H       1  LIG1        0.0322
     39 H          -7.8225   57.6541  -10.4455 H       1  LIG1        0.0322
     40 H          -6.7924   56.2711  -10.7271 H       1  LIG1        0.0322
@<TRIPOS>BOND
     1     1    13    2
     2     1    14    1
     3     1     2    1
     4     2     3    1
     5     2    15    1
     6     2    17    1
     7     3     4    1
     8     4     5    1
     9     4    16    1
    10     5     6    1
    11     5    12    1
    12     6     7    1
    13     6    17    1
    14     7     8    1
    15     7    18    1
    16     8     9    1
    17     8    19    1
    18     9    20    1
    19    10    11    1
    20    10    12   am
    21    10    21    2
    22    12    22    1
    23    14    28    1
    24    15    23    1
    25    16    24    1
    26    18    25    1
    27    19    26    1
    28    20    27    1
    29     3    29    1
    30     3    30    1
    31     4    31    1
    32     5    32    1
    33     6    33    1
    34     7    34    1
    35     8    35    1
    36     9    36    1
    37     9    37    1
    38    11    38    1
    39    11    39    1
    40    11    40    1
