@<TRIPOS>MOLECULE
pose5.pdb
 40 40 0 0 0
SMALL
GASTEIGER

@<TRIPOS>ATOM
      1  C1         0.2780   57.9630   -6.4940 C.2     1  LIG1        0.3651
      2  C2        -0.9920   57.1400   -6.7250 C.3     1  LIG1        0.2704
      3  C3        -2.4290   57.6460   -6.7210 C.3     1  LIG1        0.0403
      4  C4        -3.3690   56.7640   -7.5290 C.3     1  LIG1        0.0815
      5  C5        -2.8560   55.3320   -7.6540 C.3     1  LIG1        0.0779
      6  C6        -1.5120   55.3550   -8.3890 C.3     1  LIG1        0.1114
      7  C7        -0.8710   53.9550   -8.4430 C.3     1  LIG1        0.1111
      8  C8         0.4740   53.9590   -9.1720 C.3     1  LIG1        0.1065
      9  C9         1.2500   52.6190   -9.1570 C.3     1  LIG1        0.0727
     10  C10       -4.5050   55.0060   -9.5300 C.2     1  LIG1        0.2103
     11  C11       -5.4830   53.9970  -10.1080 C.3     1  LIG1        0.0122
     12  N1        -3.8680   54.6430   -8.4340 N.am    1  LIG1       -0.3076
     13  O1         1.2640   57.4530   -7.0560 O.2     1  LIG1       -0.2449
     14  O2         0.5280   58.9540   -5.7830 O.3     1  LIG1       -0.4769
     15  O3        -0.5220   56.1750   -5.7810 O.3     1  LIG1       -0.3561
     16  O4        -4.5940   56.7220   -6.8360 O.3     1  LIG1       -0.3897
     17  O5        -0.5530   56.1730   -7.6870 O.3     1  LIG1       -0.3321
     18  O6        -0.6140   53.4490   -7.1430 O.3     1  LIG1       -0.3865
     19  O7         0.1420   54.2170  -10.5170 O.3     1  LIG1       -0.3869
     20  O8         2.5710   52.8000   -8.6710 O.3     1  LIG1       -0.3924
     21  O9        -4.3120   56.1250  -10.0090 O.2     1  LIG1       -0.2761
     22  H1        -4.0000   53.7420   -8.0490 H       1  LIG1        0.1491
     23  H2        -1.1440   56.2740   -5.0350 H       1  LIG1        0.2133
     24  H3        -4.3770   56.5820   -5.8930 H       1  LIG1        0.2099
     25  H4        -1.3020   52.7760   -7.3350 H       1  LIG1        0.2100
     26  H5        -0.5730   53.5920  -10.7030 H       1  LIG1        0.2100
     27  H6         2.3810   52.8420   -7.7130 H       1  LIG1        0.2095
     28  H7        -0.0920   59.2390   -5.1410 H       1  LIG1        0.2952
     29 H          -2.4450   58.6321   -7.1359 H       1  LIG1        0.0349
     30 H          -2.7706   57.6353   -5.7070 H       1  LIG1        0.0349
     31 H          -3.4570   57.1706   -8.5148 H       1  LIG1        0.0614
     32 H          -2.6988   54.8498   -6.7118 H       1  LIG1        0.0550
     33 H          -1.7259   55.7300   -9.3680 H       1  LIG1        0.0643
     34 H          -1.5789   53.3457   -8.9649 H       1  LIG1        0.0646
     35 H           1.1103   54.6691   -8.6865 H       1  LIG1        0.0643
     36 H           1.2941   52.2293  -10.1526 H       1  LIG1        0.0584
     37 H           0.7395   51.9374   -8.5091 H       1  LIG1        0.0584
     38 H          -5.4684   53.1062   -9.5153 H       1  LIG1        0.0322
     39 H          -5.2004   53.7616  -11.1128 H       1  LIG1        0.0322
     40 H          -6.4690   54.4126  -10.1029 H       1  LIG1        0.0322
@<TRIPOS>BOND
     1     1    13    2
     2     1    14    1
     3     1     2    1
     4     2     3    1
     5     2    15    1
     6     2    17    1
     7     3     4    1
     8     4     5    1
     9     4    16    1
    10     5     6    1
    11     5    12    1
    12     6     7    1
    13     6    17    1
    14     7     8    1
    15     7    18    1
    16     8     9    1
    17     8    19    1
    18     9    20    1
    19    10    11    1
    20    10    12   am
    21    10    21    2
    22    12    22    1
    23    14    28    1
    24    15    23    1
    25    16    24    1
    26    18    25    1
    27    19    26    1
    28    20    27    1
    29     3    29    1
    30     3    30    1
    31     4    31    1
    32     5    32    1
    33     6    33    1
    34     7    34    1
    35     8    35    1
    36     9    36    1
    37     9    37    1
    38    11    38    1
    39    11    39    1
    40    11    40    1
