@<TRIPOS>MOLECULE
pose1.pdb
 40 40 0 0 0
SMALL
GASTEIGER

@<TRIPOS>ATOM
      1  C1        -1.3670   57.5080   -5.1670 C.2     1  LIG1        0.3651
      2  C2        -2.5100   58.3540   -5.7330 C.3     1  LIG1        0.2704
      3  C3        -2.6400   59.8710   -5.6860 C.3     1  LIG1        0.0403
      4  C4        -3.5270   60.4230   -6.7920 C.3     1  LIG1        0.0815
      5  C5        -4.5260   59.3890   -7.3030 C.3     1  LIG1        0.0779
      6  C6        -3.7510   58.2060   -7.8920 C.3     1  LIG1        0.1114
      7  C7        -4.6930   57.0650   -8.3160 C.3     1  LIG1        0.1111
      8  C8        -3.9380   55.8820   -8.9250 C.3     1  LIG1        0.1065
      9  C9        -4.8060   54.6650   -9.3270 C.3     1  LIG1        0.0727
     10  C10       -4.9340   60.4750   -9.5390 C.2     1  LIG1        0.2103
     11  C11       -6.0170   61.1430  -10.3710 C.3     1  LIG1        0.0122
     12  N1        -5.2840   60.0830   -8.3300 N.am    1  LIG1       -0.3076
     13  O1        -1.0200   57.9010   -4.0370 O.2     1  LIG1       -0.2449
     14  O2        -0.6650   56.5990   -5.6490 O.3     1  LIG1       -0.4769
     15  O3        -3.4490   57.4890   -5.0900 O.3     1  LIG1       -0.3561
     16  O4        -4.2590   61.4920   -6.2400 O.3     1  LIG1       -0.3897
     17  O5        -2.8790   57.6170   -6.9050 O.3     1  LIG1       -0.3321
     18  O6        -5.4140   56.5450   -7.2100 O.3     1  LIG1       -0.3865
     19  O7        -3.3890   56.3950  -10.1180 O.3     1  LIG1       -0.3869
     20  O8        -6.1500   54.8350   -8.9030 O.3     1  LIG1       -0.3924
     21  O9        -3.7740   60.3190   -9.9230 O.2     1  LIG1       -0.2761
     22  H1        -6.2150   60.1860   -8.0150 H       1  LIG1        0.1491
     23  H2        -3.2990   56.6320   -5.5330 H       1  LIG1        0.2133
     24  H3        -4.8250   61.8420   -6.9570 H       1  LIG1        0.2099
     25  H4        -6.2260   56.7370   -7.7270 H       1  LIG1        0.2100
     26  H5        -2.5180   55.9790  -10.1700 H       1  LIG1        0.2100
     27  H6        -6.4870   53.9350   -9.0810 H       1  LIG1        0.2095
     28  H7        -0.6590   56.4520   -6.5740 H       1  LIG1        0.2952
     29 H          -1.6649   60.3006   -5.7838 H       1  LIG1        0.0349
     30 H          -3.0951   60.1258   -4.7517 H       1  LIG1        0.0349
     31 H          -2.9075   60.7177   -7.6131 H       1  LIG1        0.0614
     32 H          -5.1699   59.0029   -6.5406 H       1  LIG1        0.0550
     33 H          -3.2110   58.6029   -8.7261 H       1  LIG1        0.0643
     34 H          -5.3499   57.5031   -9.0382 H       1  LIG1        0.0646
     35 H          -3.2490   55.5183   -8.1916 H       1  LIG1        0.0643
     36 H          -4.4046   53.7837   -8.8720 H       1  LIG1        0.0584
     37 H          -4.7942   54.5758  -10.3932 H       1  LIG1        0.0584
     38 H          -6.9333   61.1570   -9.8187 H       1  LIG1        0.0322
     39 H          -6.1567   60.5961  -11.2800 H       1  LIG1        0.0322
     40 H          -5.7231   62.1461  -10.5999 H       1  LIG1        0.0322
@<TRIPOS>BOND
     1     1    13    2
     2     1    14    1
     3     1     2    1
     4     2     3    1
     5     2    15    1
     6     2    17    1
     7     3     4    1
     8     4     5    1
     9     4    16    1
    10     5     6    1
    11     5    12    1
    12     6     7    1
    13     6    17    1
    14     7     8    1
    15     7    18    1
    16     8     9    1
    17     8    19    1
    18     9    20    1
    19    10    11    1
    20    10    12   am
    21    10    21    2
    22    12    22    1
    23    14    28    1
    24    15    23    1
    25    16    24    1
    26    18    25    1
    27    19    26    1
    28    20    27    1
    29     3    29    1
    30     3    30    1
    31     4    31    1
    32     5    32    1
    33     6    33    1
    34     7    34    1
    35     8    35    1
    36     9    36    1
    37     9    37    1
    38    11    38    1
    39    11    39    1
    40    11    40    1
