@<TRIPOS>MOLECULE
pose7.pdb
 40 40 0 0 0
SMALL
GASTEIGER

@<TRIPOS>ATOM
      1  C1        -5.7280   56.6960   -8.6910 C.2     1  LIG1        0.3651
      2  C2        -4.3290   56.9060   -8.1060 C.3     1  LIG1        0.2704
      3  C3        -3.0260   56.2920   -8.6000 C.3     1  LIG1        0.0403
      4  C4        -1.8030   57.1120   -8.2170 C.3     1  LIG1        0.0815
      5  C5        -2.0500   57.9800   -6.9860 C.3     1  LIG1        0.0779
      6  C6        -3.1780   58.9670   -7.3000 C.3     1  LIG1        0.1114
      7  C7        -3.5700   59.7940   -6.0610 C.3     1  LIG1        0.1111
      8  C8        -4.5070   60.9530   -6.4070 C.3     1  LIG1        0.1065
      9  C9        -5.9550   60.5550   -6.7840 C.3     1  LIG1        0.0727
     10  C10       -0.1640   58.9740   -5.6450 C.2     1  LIG1        0.2103
     11  C11        1.1760   59.6760   -5.7930 C.3     1  LIG1        0.0122
     12  N1        -0.7940   58.6730   -6.7630 N.am    1  LIG1       -0.3076
     13  O1        -5.8360   57.2090   -9.8200 O.2     1  LIG1       -0.2449
     14  O2        -6.7800   56.2190   -8.2250 O.3     1  LIG1       -0.4769
     15  O3        -4.8500   56.6410   -6.8010 O.3     1  LIG1       -0.3561
     16  O4        -0.7760   56.2010   -7.9010 O.3     1  LIG1       -0.3897
     17  O5        -4.3850   58.2710   -7.6740 O.3     1  LIG1       -0.3321
     18  O6        -4.2550   59.0050   -5.1020 O.3     1  LIG1       -0.3865
     19  O7        -4.5930   61.7000   -5.2150 O.3     1  LIG1       -0.3869
     20  O8        -6.8710   60.9430   -5.7710 O.3     1  LIG1       -0.3924
     21  O9        -0.6830   58.7120   -4.5590 O.2     1  LIG1       -0.2761
     22  H1        -0.3810   58.8610   -7.6410 H       1  LIG1        0.1491
     23  H2        -4.0500   56.4220   -6.2850 H       1  LIG1        0.2133
     24  H3         0.0680   56.6740   -8.0420 H       1  LIG1        0.2099
     25  H4        -4.3220   59.8250   -4.5650 H       1  LIG1        0.2100
     26  H5        -4.6410   62.6170   -5.5190 H       1  LIG1        0.2100
     27  H6        -7.7060   60.8460   -6.2680 H       1  LIG1        0.2095
     28  H7        -6.7760   55.8140   -7.3800 H       1  LIG1        0.2952
     29 H          -3.0666   56.2171   -9.6666 H       1  LIG1        0.0349
     30 H          -2.9272   55.3324   -8.1371 H       1  LIG1        0.0349
     31 H          -1.5552   57.7582   -9.0330 H       1  LIG1        0.0614
     32 H          -2.3428   57.4223   -6.1211 H       1  LIG1        0.0550
     33 H          -2.8054   59.5871   -8.0883 H       1  LIG1        0.0643
     34 H          -2.6446   60.1634   -5.6711 H       1  LIG1        0.0646
     35 H          -4.1097   61.4546   -7.2646 H       1  LIG1        0.0643
     36 H          -6.0039   59.4938   -6.9118 H       1  LIG1        0.0584
     37 H          -6.2199   61.0553   -7.6920 H       1  LIG1        0.0584
     38 H           1.4074   59.7875   -6.8317 H       1  LIG1        0.0322
     39 H           1.9380   59.0938   -5.3183 H       1  LIG1        0.0322
     40 H           1.1259   60.6409   -5.3332 H       1  LIG1        0.0322
@<TRIPOS>BOND
     1     1    13    2
     2     1    14    1
     3     1     2    1
     4     2     3    1
     5     2    15    1
     6     2    17    1
     7     3     4    1
     8     4     5    1
     9     4    16    1
    10     5     6    1
    11     5    12    1
    12     6     7    1
    13     6    17    1
    14     7     8    1
    15     7    18    1
    16     8     9    1
    17     8    19    1
    18     9    20    1
    19    10    11    1
    20    10    12   am
    21    10    21    2
    22    12    22    1
    23    14    28    1
    24    15    23    1
    25    16    24    1
    26    18    25    1
    27    19    26    1
    28    20    27    1
    29     3    29    1
    30     3    30    1
    31     4    31    1
    32     5    32    1
    33     6    33    1
    34     7    34    1
    35     8    35    1
    36     9    36    1
    37     9    37    1
    38    11    38    1
    39    11    39    1
    40    11    40    1
