@<TRIPOS>MOLECULE
pose2.pdb
 40 40 0 0 0
SMALL
GASTEIGER

@<TRIPOS>ATOM
      1  C1        -3.3690   60.7040   -5.9060 C.2     1  LIG1        0.3651
      2  C2        -3.2670   59.2400   -6.3430 C.3     1  LIG1        0.2704
      3  C3        -3.9720   58.5830   -7.5230 C.3     1  LIG1        0.0403
      4  C4        -3.2460   57.3450   -8.0290 C.3     1  LIG1        0.0815
      5  C5        -2.3730   56.7050   -6.9540 C.3     1  LIG1        0.0779
      6  C6        -1.3030   57.7140   -6.5260 C.3     1  LIG1        0.1114
      7  C7        -0.4590   57.1820   -5.3520 C.3     1  LIG1        0.1111
      8  C8         0.9920   57.6640   -5.4120 C.3     1  LIG1        0.1065
      9  C9         1.9530   56.7970   -6.2620 C.3     1  LIG1        0.0727
     10  C10       -1.2780   55.4050   -8.8130 C.2     1  LIG1        0.2103
     11  C11       -0.6840   54.0450   -9.1400 C.3     1  LIG1        0.0122
     12  N1        -1.7760   55.5500   -7.6010 N.am    1  LIG1       -0.3076
     13  O1        -4.4300   61.2270   -6.2960 O.2     1  LIG1       -0.2449
     14  O2        -2.5730   61.4800   -5.3470 O.3     1  LIG1       -0.4769
     15  O3        -3.5040   58.8360   -4.9930 O.3     1  LIG1       -0.3561
     16  O4        -4.2330   56.4090   -8.3950 O.3     1  LIG1       -0.3897
     17  O5        -1.9050   58.9260   -6.0270 O.3     1  LIG1       -0.3321
     18  O6        -0.9690   57.6210   -4.1020 O.3     1  LIG1       -0.3865
     19  O7         0.9160   58.9200   -6.0480 O.3     1  LIG1       -0.3869
     20  O8         1.4620   56.6380   -7.5840 O.3     1  LIG1       -0.3924
     21  O9        -1.3390   56.3370   -9.6170 O.2     1  LIG1       -0.2761
     22  H1        -1.7180   54.8170   -6.9410 H       1  LIG1        0.1491
     23  H2        -3.4720   57.8610   -5.0450 H       1  LIG1        0.2133
     24  H3        -4.7760   56.2500   -7.5980 H       1  LIG1        0.2099
     25  H4        -0.5380   56.8270   -3.7170 H       1  LIG1        0.2100
     26  H5         1.5390   59.4680   -5.5510 H       1  LIG1        0.2100
     27  H6         1.1350   55.7190   -7.5210 H       1  LIG1        0.2095
     28  H7        -1.6730   61.2360   -5.2470 H       1  LIG1        0.2952
     29 H          -4.0353   59.2924   -8.3215 H       1  LIG1        0.0349
     30 H          -4.9403   58.2743   -7.1884 H       1  LIG1        0.0349
     31 H          -2.6119   57.6282   -8.8430 H       1  LIG1        0.0614
     32 H          -2.9146   56.4198   -6.0764 H       1  LIG1        0.0550
     33 H          -0.7058   57.8861   -7.3970 H       1  LIG1        0.0643
     34 H          -0.5043   56.1165   -5.4391 H       1  LIG1        0.0646
     35 H           1.3869   57.6475   -4.4177 H       1  LIG1        0.0643
     36 H           2.0498   55.8335   -5.8067 H       1  LIG1        0.0584
     37 H           2.9028   57.2876   -6.3085 H       1  LIG1        0.0584
     38 H          -0.7481   53.4117   -8.2800 H       1  LIG1        0.0322
     39 H           0.3418   54.1621   -9.4210 H       1  LIG1        0.0322
     40 H          -1.2274   53.6037   -9.9492 H       1  LIG1        0.0322
@<TRIPOS>BOND
     1     1    13    2
     2     1    14    1
     3     1     2    1
     4     2     3    1
     5     2    15    1
     6     2    17    1
     7     3     4    1
     8     4     5    1
     9     4    16    1
    10     5     6    1
    11     5    12    1
    12     6     7    1
    13     6    17    1
    14     7     8    1
    15     7    18    1
    16     8     9    1
    17     8    19    1
    18     9    20    1
    19    10    11    1
    20    10    12   am
    21    10    21    2
    22    12    22    1
    23    14    28    1
    24    15    23    1
    25    16    24    1
    26    18    25    1
    27    19    26    1
    28    20    27    1
    29     3    29    1
    30     3    30    1
    31     4    31    1
    32     5    32    1
    33     6    33    1
    34     7    34    1
    35     8    35    1
    36     9    36    1
    37     9    37    1
    38    11    38    1
    39    11    39    1
    40    11    40    1
