@<TRIPOS>MOLECULE
pose7.pdb
 40 40 0 0 0
SMALL
GASTEIGER

@<TRIPOS>ATOM
      1  C1        -6.1280   58.4460   -8.5360 C.2     1  LIG1        0.3651
      2  C2        -5.1810   57.2470   -8.4420 C.3     1  LIG1        0.2704
      3  C3        -4.8370   56.2590   -9.5490 C.3     1  LIG1        0.0403
      4  C4        -3.4910   55.5810   -9.3390 C.3     1  LIG1        0.0815
      5  C5        -3.0760   55.5600   -7.8700 C.3     1  LIG1        0.0779
      6  C6        -2.9370   57.0050   -7.3790 C.3     1  LIG1        0.1114
      7  C7        -2.6410   57.0650   -5.8690 C.3     1  LIG1        0.1111
      8  C8        -1.1550   57.2830   -5.5750 C.3     1  LIG1        0.1065
      9  C9        -0.8360   58.1180   -4.3110 C.3     1  LIG1        0.0727
     10  C10       -0.6290   55.2250   -8.3640 C.2     1  LIG1        0.2103
     11  C11        0.5270   54.2700   -8.1170 C.3     1  LIG1        0.0122
     12  N1        -1.7950   54.8770   -7.8580 N.am    1  LIG1       -0.3076
     13  O1        -7.2340   58.1210   -9.0050 O.2     1  LIG1       -0.2449
     14  O2        -5.9730   59.6660   -8.3420 O.3     1  LIG1       -0.4769
     15  O3        -5.8360   56.8420   -7.2370 O.3     1  LIG1       -0.3561
     16  O4        -3.6300   54.2450   -9.7650 O.3     1  LIG1       -0.3897
     17  O5        -4.1750   57.7270   -7.5410 O.3     1  LIG1       -0.3321
     18  O6        -3.3280   58.1370   -5.2450 O.3     1  LIG1       -0.3865
     19  O7        -0.6520   55.9870   -5.3390 O.3     1  LIG1       -0.3869
     20  O8        -1.4220   57.5390   -3.1560 O.3     1  LIG1       -0.3924
     21  O9        -0.5320   56.2610   -9.0240 O.2     1  LIG1       -0.2761
     22  H1        -1.8830   54.0580   -7.3120 H       1  LIG1        0.1491
     23  H2        -6.1700   55.9510   -7.4560 H       1  LIG1        0.2133
     24  H3        -3.7650   54.2740  -10.7330 H       1  LIG1        0.2099
     25  H4        -4.1130   57.5470   -5.2330 H       1  LIG1        0.2100
     26  H5         0.1200   55.9300   -5.9180 H       1  LIG1        0.2100
     27  H6        -0.9930   58.0870   -2.4700 H       1  LIG1        0.2095
     28  H7        -6.5860   60.2790   -8.7000 H       1  LIG1        0.2952
     29 H          -4.8130   56.7846  -10.4807 H       1  LIG1        0.0349
     30 H          -5.5863   55.4951   -9.5425 H       1  LIG1        0.0349
     31 H          -2.7464   56.1214   -9.8853 H       1  LIG1        0.0614
     32 H          -3.7820   55.0705   -7.2321 H       1  LIG1        0.0550
     33 H          -2.1412   57.4291   -7.9550 H       1  LIG1        0.0643
     34 H          -2.9646   56.1198   -5.4859 H       1  LIG1        0.0646
     35 H          -0.7320   57.8241   -6.3955 H       1  LIG1        0.0643
     36 H          -1.2212   59.1080   -4.4396 H       1  LIG1        0.0584
     37 H           0.2255   58.1422   -4.1782 H       1  LIG1        0.0584
     38 H           0.1901   53.4494   -7.5187 H       1  LIG1        0.0322
     39 H           1.3125   54.7857   -7.6052 H       1  LIG1        0.0322
     40 H           0.8923   53.9026   -9.0532 H       1  LIG1        0.0322
@<TRIPOS>BOND
     1     1    13    2
     2     1    14    1
     3     1     2    1
     4     2     3    1
     5     2    15    1
     6     2    17    1
     7     3     4    1
     8     4     5    1
     9     4    16    1
    10     5     6    1
    11     5    12    1
    12     6     7    1
    13     6    17    1
    14     7     8    1
    15     7    18    1
    16     8     9    1
    17     8    19    1
    18     9    20    1
    19    10    11    1
    20    10    12   am
    21    10    21    2
    22    12    22    1
    23    14    28    1
    24    15    23    1
    25    16    24    1
    26    18    25    1
    27    19    26    1
    28    20    27    1
    29     3    29    1
    30     3    30    1
    31     4    31    1
    32     5    32    1
    33     6    33    1
    34     7    34    1
    35     8    35    1
    36     9    36    1
    37     9    37    1
    38    11    38    1
    39    11    39    1
    40    11    40    1
