@<TRIPOS>MOLECULE
pose8.pdb
 40 40 0 0 0
SMALL
GASTEIGER

@<TRIPOS>ATOM
      1  C1        -7.2820   57.9850   -8.0830 C.2     1  LIG1        0.3651
      2  C2        -6.4080   56.7600   -8.3660 C.3     1  LIG1        0.2704
      3  C3        -6.4730   55.8470   -9.5840 C.3     1  LIG1        0.0403
      4  C4        -5.1610   55.1250   -9.8500 C.3     1  LIG1        0.0815
      5  C5        -4.3080   54.9880   -8.5920 C.3     1  LIG1        0.0779
      6  C6        -3.9580   56.3890   -8.0820 C.3     1  LIG1        0.1114
      7  C7        -3.2010   56.3330   -6.7420 C.3     1  LIG1        0.1111
      8  C8        -1.8090   55.7150   -6.8850 C.3     1  LIG1        0.1065
      9  C9        -0.7550   56.5930   -7.6030 C.3     1  LIG1        0.0727
     10  C10       -2.5030   53.2330   -8.5040 C.2     1  LIG1        0.2103
     11  C11       -1.2930   52.7150   -9.2630 C.3     1  LIG1        0.0122
     12  N1        -3.1200   54.2750   -9.0260 N.am    1  LIG1       -0.3076
     13  O1        -6.5950   59.0090   -7.9110 O.2     1  LIG1       -0.2449
     14  O2        -8.5040   58.1300   -7.8910 O.3     1  LIG1       -0.4769
     15  O3        -6.6710   56.2850   -7.0430 O.3     1  LIG1       -0.3561
     16  O4        -5.4860   53.8270  -10.2920 O.3     1  LIG1       -0.3897
     17  O5        -5.1510   57.1500   -7.8010 O.3     1  LIG1       -0.3321
     18  O6        -3.0040   57.6280   -6.1990 O.3     1  LIG1       -0.3865
     19  O7        -1.3610   55.5540   -5.5580 O.3     1  LIG1       -0.3869
     20  O8         0.2200   57.0710   -6.6880 O.3     1  LIG1       -0.3924
     21  O9        -2.9000   52.7560   -7.4390 O.2     1  LIG1       -0.2761
     22  H1        -2.8230   54.6570   -9.8870 H       1  LIG1        0.1491
     23  H2        -6.3170   55.3750   -7.0610 H       1  LIG1        0.2133
     24  H3        -5.8800   53.3630   -9.5270 H       1  LIG1        0.2099
     25  H4        -2.9890   57.1910   -5.3190 H       1  LIG1        0.2100
     26  H5        -0.5910   56.1370   -5.5010 H       1  LIG1        0.2100
     27  H6         0.9440   57.2630   -7.3150 H       1  LIG1        0.2095
     28  H7        -9.1030   57.4630   -8.1630 H       1  LIG1        0.2952
     29 H          -6.7180   56.4381  -10.4416 H       1  LIG1        0.0349
     30 H          -7.2167   55.1027   -9.3894 H       1  LIG1        0.0349
     31 H          -4.6012   55.6868  -10.5683 H       1  LIG1        0.0614
     32 H          -4.7999   54.4702   -7.7952 H       1  LIG1        0.0550
     33 H          -3.3644   56.8350   -8.8524 H       1  LIG1        0.0643
     34 H          -3.8143   55.7326   -6.1031 H       1  LIG1        0.0646
     35 H          -1.9007   54.8279   -7.4762 H       1  LIG1        0.0643
     36 H          -1.2465   57.4276   -8.0578 H       1  LIG1        0.0584
     37 H          -0.2634   55.9972   -8.3435 H       1  LIG1        0.0584
     38 H          -1.1557   53.2933  -10.1527 H       1  LIG1        0.0322
     39 H          -1.4485   51.6892   -9.5248 H       1  LIG1        0.0322
     40 H          -0.4227   52.7976   -8.6460 H       1  LIG1        0.0322
@<TRIPOS>BOND
     1     1    13    2
     2     1    14    1
     3     1     2    1
     4     2     3    1
     5     2    15    1
     6     2    17    1
     7     3     4    1
     8     4     5    1
     9     4    16    1
    10     5     6    1
    11     5    12    1
    12     6     7    1
    13     6    17    1
    14     7     8    1
    15     7    18    1
    16     8     9    1
    17     8    19    1
    18     9    20    1
    19    10    11    1
    20    10    12   am
    21    10    21    2
    22    12    22    1
    23    14    28    1
    24    15    23    1
    25    16    24    1
    26    18    25    1
    27    19    26    1
    28    20    27    1
    29     3    29    1
    30     3    30    1
    31     4    31    1
    32     5    32    1
    33     6    33    1
    34     7    34    1
    35     8    35    1
    36     9    36    1
    37     9    37    1
    38    11    38    1
    39    11    39    1
    40    11    40    1
