@<TRIPOS>MOLECULE
pose5.pdb
 40 40 0 0 0
SMALL
GASTEIGER

@<TRIPOS>ATOM
      1  C1        -1.7890   54.1990   -9.1770 C.2     1  LIG1        0.3651
      2  C2        -1.6640   55.4170   -8.2590 C.3     1  LIG1        0.2704
      3  C3        -0.3880   56.1650   -7.8940 C.3     1  LIG1        0.0403
      4  C4        -0.6460   57.6040   -7.4740 C.3     1  LIG1        0.0815
      5  C5        -2.0630   57.8080   -6.9450 C.3     1  LIG1        0.0779
      6  C6        -3.0570   57.4770   -8.0630 C.3     1  LIG1        0.1114
      7  C7        -4.5130   57.5400   -7.5650 C.3     1  LIG1        0.1111
      8  C8        -5.5030   56.9810   -8.5890 C.3     1  LIG1        0.1065
      9  C9        -6.3970   55.8180   -8.0940 C.3     1  LIG1        0.0727
     10  C10       -2.2480   59.7970   -5.4100 C.2     1  LIG1        0.2103
     11  C11       -2.2320   61.3160   -5.4060 C.3     1  LIG1        0.0122
     12  N1        -2.1260   59.2140   -6.5870 N.am    1  LIG1       -0.3076
     13  O1        -2.0470   54.5320  -10.3490 O.2     1  LIG1       -0.2449
     14  O2        -1.7900   52.9720   -8.9640 O.3     1  LIG1       -0.4769
     15  O3        -2.4570   54.7420   -7.2790 O.3     1  LIG1       -0.3561
     16  O4         0.2500   57.8960   -6.4270 O.3     1  LIG1       -0.3897
     17  O5        -2.8830   56.1210   -8.5240 O.3     1  LIG1       -0.3321
     18  O6        -4.6930   56.7740   -6.3840 O.3     1  LIG1       -0.3865
     19  O7        -6.3650   58.0620   -8.8660 O.3     1  LIG1       -0.3869
     20  O8        -5.6680   54.6020   -8.0370 O.3     1  LIG1       -0.3924
     21  O9        -2.3970   59.1110   -4.3980 O.2     1  LIG1       -0.2761
     22  H1        -1.9880   59.7510   -7.4040 H       1  LIG1        0.1491
     23  H2        -1.8050   54.5090   -6.5900 H       1  LIG1        0.2133
     24  H3        -0.2900   58.2310   -5.6840 H       1  LIG1        0.2099
     25  H4        -4.6190   57.6230   -5.8950 H       1  LIG1        0.2100
     26  H5        -7.1490   57.6400   -9.2440 H       1  LIG1        0.2100
     27  H6        -5.5550   54.4410   -8.9950 H       1  LIG1        0.2095
     28  H7        -1.7780   52.6490   -8.0850 H       1  LIG1        0.2952
     29 H           0.2610   56.1686   -8.7447 H       1  LIG1        0.0349
     30 H           0.0527   55.6607   -7.0595 H       1  LIG1        0.0349
     31 H          -0.5174   58.2378   -8.3264 H       1  LIG1        0.0614
     32 H          -2.3012   57.1846   -6.1086 H       1  LIG1        0.0550
     33 H          -2.8719   58.1951   -8.8343 H       1  LIG1        0.0643
     34 H          -4.7013   58.5785   -7.3889 H       1  LIG1        0.0646
     35 H          -4.9417   56.5865   -9.4101 H       1  LIG1        0.0643
     36 H          -7.2211   55.7002   -8.7662 H       1  LIG1        0.0584
     37 H          -6.7451   56.0521   -7.1096 H       1  LIG1        0.0584
     38 H          -2.0885   61.6738   -6.4041 H       1  LIG1        0.0322
     39 H          -1.4329   61.6626   -4.7845 H       1  LIG1        0.0322
     40 H          -3.1633   61.6815   -5.0265 H       1  LIG1        0.0322
@<TRIPOS>BOND
     1     1    13    2
     2     1    14    1
     3     1     2    1
     4     2     3    1
     5     2    15    1
     6     2    17    1
     7     3     4    1
     8     4     5    1
     9     4    16    1
    10     5     6    1
    11     5    12    1
    12     6     7    1
    13     6    17    1
    14     7     8    1
    15     7    18    1
    16     8     9    1
    17     8    19    1
    18     9    20    1
    19    10    11    1
    20    10    12   am
    21    10    21    2
    22    12    22    1
    23    14    28    1
    24    15    23    1
    25    16    24    1
    26    18    25    1
    27    19    26    1
    28    20    27    1
    29     3    29    1
    30     3    30    1
    31     4    31    1
    32     5    32    1
    33     6    33    1
    34     7    34    1
    35     8    35    1
    36     9    36    1
    37     9    37    1
    38    11    38    1
    39    11    39    1
    40    11    40    1
