@<TRIPOS>MOLECULE
pose8.pdb
 40 40 0 0 0
SMALL
GASTEIGER

@<TRIPOS>ATOM
      1  C1        -3.0850   58.7110   -5.0920 C.2     1  LIG1        0.3651
      2  C2        -1.8240   58.0170   -5.6130 C.3     1  LIG1        0.2704
      3  C3        -1.7520   56.8840   -6.6280 C.3     1  LIG1        0.0403
      4  C4        -0.4150   56.8210   -7.3510 C.3     1  LIG1        0.0815
      5  C5         0.7120   57.4580   -6.5410 C.3     1  LIG1        0.0779
      6  C6         0.3830   58.9380   -6.3230 C.3     1  LIG1        0.1114
      7  C7         1.4150   59.6190   -5.4050 C.3     1  LIG1        0.1111
      8  C8         1.7870   61.0230   -5.8880 C.3     1  LIG1        0.1065
      9  C9         0.7080   62.1140   -5.6780 C.3     1  LIG1        0.0727
     10  C10        2.9520   56.5240   -7.2150 C.2     1  LIG1        0.2103
     11  C11        3.9970   56.5860   -8.3170 C.3     1  LIG1        0.0122
     12  N1         1.8960   57.2990   -7.3660 N.am    1  LIG1       -0.3076
     13  O1        -3.5670   59.4850   -5.9390 O.2     1  LIG1       -0.2449
     14  O2        -3.6440   58.7310   -3.9800 O.3     1  LIG1       -0.4769
     15  O3        -1.3690   57.8630   -4.2670 O.3     1  LIG1       -0.3561
     16  O4        -0.1020   55.4590   -7.5240 O.3     1  LIG1       -0.3897
     17  O5        -0.8770   59.0920   -5.6380 O.3     1  LIG1       -0.3321
     18  O6         0.9180   59.7750   -4.0860 O.3     1  LIG1       -0.3865
     19  O7         2.8890   61.3870   -5.0870 O.3     1  LIG1       -0.3869
     20  O8        -0.4840   61.5560   -5.1470 O.3     1  LIG1       -0.3924
     21  O9         3.0620   55.8270   -6.2050 O.2     1  LIG1       -0.2761
     22  H1         1.7870   57.8500   -8.1790 H       1  LIG1        0.1491
     23  H2        -1.7270   56.9910   -4.0110 H       1  LIG1        0.2133
     24  H3         0.6160   55.4200   -8.1870 H       1  LIG1        0.2099
     25  H4         1.8450   59.9650   -3.8240 H       1  LIG1        0.2100
     26  H5         3.4410   60.5930   -5.0790 H       1  LIG1        0.2100
     27  H6        -0.5610   62.0920   -4.3350 H       1  LIG1        0.2095
     28  H7        -4.3840   59.2880   -3.8370 H       1  LIG1        0.2952
     29 H          -2.5259   57.0256   -7.3532 H       1  LIG1        0.0349
     30 H          -1.8712   55.9652   -6.0927 H       1  LIG1        0.0349
     31 H          -0.5002   57.3535   -8.2752 H       1  LIG1        0.0614
     32 H           0.8504   57.0149   -5.5769 H       1  LIG1        0.0550
     33 H           0.3710   59.3765   -7.2990 H       1  LIG1        0.0643
     34 H           2.2699   58.9758   -5.4253 H       1  LIG1        0.0646
     35 H           1.9510   60.9760   -6.9443 H       1  LIG1        0.0643
     36 H           0.4895   62.5754   -6.6183 H       1  LIG1        0.0584
     37 H           1.0845   62.8362   -4.9841 H       1  LIG1        0.0584
     38 H           3.6699   57.2596   -9.0813 H       1  LIG1        0.0322
     39 H           4.1324   55.6106   -8.7354 H       1  LIG1        0.0322
     40 H           4.9244   56.9314   -7.9101 H       1  LIG1        0.0322
@<TRIPOS>BOND
     1     1    13    2
     2     1    14    1
     3     1     2    1
     4     2     3    1
     5     2    15    1
     6     2    17    1
     7     3     4    1
     8     4     5    1
     9     4    16    1
    10     5     6    1
    11     5    12    1
    12     6     7    1
    13     6    17    1
    14     7     8    1
    15     7    18    1
    16     8     9    1
    17     8    19    1
    18     9    20    1
    19    10    11    1
    20    10    12   am
    21    10    21    2
    22    12    22    1
    23    14    28    1
    24    15    23    1
    25    16    24    1
    26    18    25    1
    27    19    26    1
    28    20    27    1
    29     3    29    1
    30     3    30    1
    31     4    31    1
    32     5    32    1
    33     6    33    1
    34     7    34    1
    35     8    35    1
    36     9    36    1
    37     9    37    1
    38    11    38    1
    39    11    39    1
    40    11    40    1
