@<TRIPOS>MOLECULE
pose9.pdb
 40 40 0 0 0
SMALL
GASTEIGER

@<TRIPOS>ATOM
      1  C1        -5.7530   57.2660   -8.4640 C.2     1  LIG1        0.3651
      2  C2        -4.3180   57.0170   -7.9940 C.3     1  LIG1        0.2704
      3  C3        -3.2260   56.2580   -8.7380 C.3     1  LIG1        0.0403
      4  C4        -1.8250   56.6730   -8.3150 C.3     1  LIG1        0.0815
      5  C5        -1.7950   57.2650   -6.9090 C.3     1  LIG1        0.0779
      6  C6        -2.6660   58.5250   -6.8880 C.3     1  LIG1        0.1114
      7  C7        -2.7850   59.1080   -5.4670 C.3     1  LIG1        0.1111
      8  C8        -3.4190   60.5010   -5.4620 C.3     1  LIG1        0.1065
      9  C9        -4.9570   60.5390   -5.2860 C.3     1  LIG1        0.0727
     10  C10        0.4750   57.0670   -5.8350 C.2     1  LIG1        0.2103
     11  C11        1.8840   57.6310   -5.8920 C.3     1  LIG1        0.0122
     12  N1        -0.4000   57.5880   -6.6730 N.am    1  LIG1       -0.3076
     13  O1        -5.8790   58.3940   -8.9760 O.2     1  LIG1       -0.2449
     14  O2        -6.8110   56.6220   -8.3390 O.3     1  LIG1       -0.4769
     15  O3        -4.8230   56.5810   -6.7300 O.3     1  LIG1       -0.3561
     16  O4        -1.0340   55.5080   -8.3080 O.3     1  LIG1       -0.3897
     17  O5        -4.0220   58.2220   -7.2770 O.3     1  LIG1       -0.3321
     18  O6        -3.6040   58.3000   -4.6380 O.3     1  LIG1       -0.3865
     19  O7        -2.8690   61.1300   -4.3260 O.3     1  LIG1       -0.3869
     20  O8        -5.6130   59.9660   -6.4070 O.3     1  LIG1       -0.3924
     21  O9         0.1190   56.1930   -5.0420 O.2     1  LIG1       -0.2761
     22  H1        -0.1240   58.2770   -7.3250 H       1  LIG1        0.1491
     23  H2        -4.0130   56.4650   -6.1960 H       1  LIG1        0.2133
     24  H3        -0.8580   55.2850   -9.2440 H       1  LIG1        0.2099
     25  H4        -2.7770   57.8400   -4.3730 H       1  LIG1        0.2100
     26  H5        -1.9150   61.0180   -4.4390 H       1  LIG1        0.2100
     27  H6        -6.5010   59.8370   -6.0210 H       1  LIG1        0.2095
     28  H7        -6.7950   55.6850   -8.3630 H       1  LIG1        0.2952
     29 H          -3.3351   56.4427   -9.7863 H       1  LIG1        0.0349
     30 H          -3.3386   55.2202   -8.5033 H       1  LIG1        0.0349
     31 H          -1.4692   57.4192   -8.9943 H       1  LIG1        0.0614
     32 H          -2.1711   56.6024   -6.1577 H       1  LIG1        0.0550
     33 H          -2.1949   59.2121   -7.5594 H       1  LIG1        0.0643
     34 H          -1.7809   59.1498   -5.0997 H       1  LIG1        0.0646
     35 H          -3.2234   60.9562   -6.4104 H       1  LIG1        0.0643
     36 H          -5.2717   61.5561   -5.1790 H       1  LIG1        0.0584
     37 H          -5.2140   59.9727   -4.4152 H       1  LIG1        0.0584
     38 H           1.9402   58.3734   -6.6605 H       1  LIG1        0.0322
     39 H           2.5753   56.8429   -6.1062 H       1  LIG1        0.0322
     40 H           2.1292   58.0741   -4.9494 H       1  LIG1        0.0322
@<TRIPOS>BOND
     1     1    13    2
     2     1    14    1
     3     1     2    1
     4     2     3    1
     5     2    15    1
     6     2    17    1
     7     3     4    1
     8     4     5    1
     9     4    16    1
    10     5     6    1
    11     5    12    1
    12     6     7    1
    13     6    17    1
    14     7     8    1
    15     7    18    1
    16     8     9    1
    17     8    19    1
    18     9    20    1
    19    10    11    1
    20    10    12   am
    21    10    21    2
    22    12    22    1
    23    14    28    1
    24    15    23    1
    25    16    24    1
    26    18    25    1
    27    19    26    1
    28    20    27    1
    29     3    29    1
    30     3    30    1
    31     4    31    1
    32     5    32    1
    33     6    33    1
    34     7    34    1
    35     8    35    1
    36     9    36    1
    37     9    37    1
    38    11    38    1
    39    11    39    1
    40    11    40    1
