@<TRIPOS>MOLECULE
pose2.pdb
 40 40 0 0 0
SMALL
GASTEIGER

@<TRIPOS>ATOM
      1  C1        -2.8690   58.2120   -4.9910 C.2     1  LIG1        0.3651
      2  C2        -2.6560   57.2620   -6.1720 C.3     1  LIG1        0.2704
      3  C3        -1.7200   56.0610   -6.2280 C.3     1  LIG1        0.0403
      4  C4        -2.1500   55.0240   -7.2540 C.3     1  LIG1        0.0815
      5  C5        -3.0040   55.6270   -8.3650 C.3     1  LIG1        0.0779
      6  C6        -4.2800   56.2050   -7.7440 C.3     1  LIG1        0.1114
      7  C7        -5.1360   56.9440   -8.7900 C.3     1  LIG1        0.1111
      8  C8        -6.4710   56.2450   -9.0480 C.3     1  LIG1        0.1065
      9  C9        -7.6060   57.1440   -9.5970 C.3     1  LIG1        0.0727
     10  C10       -4.0150   53.4190   -9.0360 C.2     1  LIG1        0.2103
     11  C11       -4.1640   52.4750  -10.2170 C.3     1  LIG1        0.0122
     12  N1        -3.3080   54.5130   -9.2450 N.am    1  LIG1       -0.3076
     13  O1        -2.0060   58.0480   -4.1090 O.2     1  LIG1       -0.2449
     14  O2        -3.7730   59.0180   -4.7030 O.3     1  LIG1       -0.4769
     15  O3        -2.4980   58.3910   -7.0340 O.3     1  LIG1       -0.3561
     16  O4        -0.9760   54.5140   -7.8430 O.3     1  LIG1       -0.3897
     17  O5        -3.9650   57.2060   -6.7530 O.3     1  LIG1       -0.3321
     18  O6        -5.4550   58.2600   -8.3680 O.3     1  LIG1       -0.3865
     19  O7        -6.1840   55.3010  -10.0560 O.3     1  LIG1       -0.3869
     20  O8        -8.1420   56.6120  -10.7990 O.3     1  LIG1       -0.3924
     21  O9        -4.4840   53.1970   -7.9180 O.2     1  LIG1       -0.2761
     22  H1        -2.9410   54.7120  -10.1400 H       1  LIG1        0.1491
     23  H2        -2.4100   57.9830   -7.9180 H       1  LIG1        0.2133
     24  H3        -0.4830   54.0590   -7.1320 H       1  LIG1        0.2099
     25  H4        -4.5410   58.5020   -8.6360 H       1  LIG1        0.2100
     26  H5        -6.9490   54.7100  -10.0440 H       1  LIG1        0.2100
     27  H6        -8.7520   55.9490  -10.4200 H       1  LIG1        0.2095
     28  H7        -4.6650   58.7320   -4.6770 H       1  LIG1        0.2952
     29 H          -1.6993   55.5988   -5.2632 H       1  LIG1        0.0349
     30 H          -0.7544   56.4192   -6.5182 H       1  LIG1        0.0349
     31 H          -2.7326   54.2748   -6.7599 H       1  LIG1        0.0614
     32 H          -2.5180   56.4184   -8.8964 H       1  LIG1        0.0550
     33 H          -4.8004   55.3686   -7.3261 H       1  LIG1        0.0643
     34 H          -4.5395   56.9540   -9.6783 H       1  LIG1        0.0646
     35 H          -6.8274   55.8629   -8.1143 H       1  LIG1        0.0643
     36 H          -7.2153   58.1211   -9.7908 H       1  LIG1        0.0584
     37 H          -8.3871   57.1897   -8.8671 H       1  LIG1        0.0584
     38 H          -3.6710   52.8911  -11.0706 H       1  LIG1        0.0322
     39 H          -5.2025   52.3389  -10.4360 H       1  LIG1        0.0322
     40 H          -3.7234   51.5301   -9.9761 H       1  LIG1        0.0322
@<TRIPOS>BOND
     1     1    13    2
     2     1    14    1
     3     1     2    1
     4     2     3    1
     5     2    15    1
     6     2    17    1
     7     3     4    1
     8     4     5    1
     9     4    16    1
    10     5     6    1
    11     5    12    1
    12     6     7    1
    13     6    17    1
    14     7     8    1
    15     7    18    1
    16     8     9    1
    17     8    19    1
    18     9    20    1
    19    10    11    1
    20    10    12   am
    21    10    21    2
    22    12    22    1
    23    14    28    1
    24    15    23    1
    25    16    24    1
    26    18    25    1
    27    19    26    1
    28    20    27    1
    29     3    29    1
    30     3    30    1
    31     4    31    1
    32     5    32    1
    33     6    33    1
    34     7    34    1
    35     8    35    1
    36     9    36    1
    37     9    37    1
    38    11    38    1
    39    11    39    1
    40    11    40    1
