@<TRIPOS>MOLECULE
pose0.pdb
 40 40 0 0 0
SMALL
GASTEIGER

@<TRIPOS>ATOM
      1  C1        -4.5600   59.9130   -7.1500 C.2     1  LIG1        0.3651
      2  C2        -4.3900   58.6060   -7.9300 C.3     1  LIG1        0.2704
      3  C3        -4.8880   58.3060   -9.3380 C.3     1  LIG1        0.0403
      4  C4        -4.0920   57.2060  -10.0240 C.3     1  LIG1        0.0815
      5  C5        -3.4150   56.2710   -9.0250 C.3     1  LIG1        0.0779
      6  C6        -2.4290   57.0860   -8.1820 C.3     1  LIG1        0.1114
      7  C7        -1.7970   56.2330   -7.0660 C.3     1  LIG1        0.1111
      8  C8        -0.8570   57.0450   -6.1740 C.3     1  LIG1        0.1065
      9  C9        -1.5430   57.9820   -5.1500 C.3     1  LIG1        0.0727
     10  C10       -1.8890   55.4530  -10.8540 C.2     1  LIG1        0.2103
     11  C11       -1.3080   54.1840  -11.4570 C.3     1  LIG1        0.0122
     12  N1        -2.7210   55.2940   -9.8440 N.am    1  LIG1       -0.3076
     13  O1        -5.1760   60.7670   -7.8140 O.2     1  LIG1       -0.2449
     14  O2        -4.1200   60.3110   -6.0560 O.3     1  LIG1       -0.4769
     15  O3        -4.8530   57.8810   -6.7880 O.3     1  LIG1       -0.3561
     16  O4        -5.0050   56.4420  -10.7760 O.3     1  LIG1       -0.3897
     17  O5        -3.1030   58.1580   -7.4900 O.3     1  LIG1       -0.3321
     18  O6        -2.7840   55.6870   -6.2050 O.3     1  LIG1       -0.3865
     19  O7        -0.1590   56.0750   -5.4260 O.3     1  LIG1       -0.3869
     20  O8        -2.1190   57.2390   -4.0860 O.3     1  LIG1       -0.3924
     21  O9        -1.6470   56.5850  -11.2770 O.2     1  LIG1       -0.2761
     22  H1        -2.9100   54.3930   -9.4840 H       1  LIG1        0.1491
     23  H2        -4.1600   57.2050   -6.6600 H       1  LIG1        0.2133
     24  H3        -4.7210   55.5100  -10.6970 H       1  LIG1        0.2099
     25  H4        -2.6300   54.8350   -6.6680 H       1  LIG1        0.2100
     26  H5         0.6000   55.8550   -5.9840 H       1  LIG1        0.2100
     27  H6        -2.7580   57.9020   -3.7590 H       1  LIG1        0.2095
     28  H7        -3.4160   59.8540   -5.6400 H       1  LIG1        0.2952
     29 H          -4.8134   59.1981   -9.9241 H       1  LIG1        0.0349
     30 H          -5.8998   57.9677   -9.2561 H       1  LIG1        0.0349
     31 H          -3.3291   57.6585  -10.6225 H       1  LIG1        0.0614
     32 H          -4.0980   55.7963   -8.3519 H       1  LIG1        0.0550
     33 H          -1.6926   57.4465   -8.8695 H       1  LIG1        0.0643
     34 H          -1.2572   55.4637   -7.5776 H       1  LIG1        0.0646
     35 H          -0.2733   57.6818   -6.8054 H       1  LIG1        0.0643
     36 H          -2.3118   58.5379   -5.6448 H       1  LIG1        0.0584
     37 H          -0.8049   58.6419   -4.7442 H       1  LIG1        0.0584
     38 H          -1.6674   53.3345  -10.9148 H       1  LIG1        0.0322
     39 H          -0.2401   54.2182  -11.3993 H       1  LIG1        0.0322
     40 H          -1.6076   54.1062  -12.4813 H       1  LIG1        0.0322
@<TRIPOS>BOND
     1     1    13    2
     2     1    14    1
     3     1     2    1
     4     2     3    1
     5     2    15    1
     6     2    17    1
     7     3     4    1
     8     4     5    1
     9     4    16    1
    10     5     6    1
    11     5    12    1
    12     6     7    1
    13     6    17    1
    14     7     8    1
    15     7    18    1
    16     8     9    1
    17     8    19    1
    18     9    20    1
    19    10    11    1
    20    10    12   am
    21    10    21    2
    22    12    22    1
    23    14    28    1
    24    15    23    1
    25    16    24    1
    26    18    25    1
    27    19    26    1
    28    20    27    1
    29     3    29    1
    30     3    30    1
    31     4    31    1
    32     5    32    1
    33     6    33    1
    34     7    34    1
    35     8    35    1
    36     9    36    1
    37     9    37    1
    38    11    38    1
    39    11    39    1
    40    11    40    1
