@<TRIPOS>MOLECULE
pose9.pdb
 40 40 0 0 0
SMALL
GASTEIGER

@<TRIPOS>ATOM
      1  C1         3.5320   56.4930   -7.6900 C.2     1  LIG1        0.3651
      2  C2         3.0490   57.5750   -6.7200 C.3     1  LIG1        0.2704
      3  C3         3.5450   59.0120   -6.6250 C.3     1  LIG1        0.0403
      4  C4         2.5180   59.9530   -6.0150 C.3     1  LIG1        0.0815
      5  C5         1.5200   59.2210   -5.1210 C.3     1  LIG1        0.0779
      6  C6         0.7530   58.2050   -5.9730 C.3     1  LIG1        0.1114
      7  C7        -0.1870   57.3390   -5.1140 C.3     1  LIG1        0.1111
      8  C8        -1.5030   58.0500   -4.7940 C.3     1  LIG1        0.1065
      9  C9        -2.7090   57.6660   -5.6870 C.3     1  LIG1        0.0727
     10  C10       -0.3470   60.9090   -5.2150 C.2     1  LIG1        0.2103
     11  C11       -1.0990   61.9170   -4.3620 C.3     1  LIG1        0.0122
     12  N1         0.6370   60.2610   -4.6240 N.am    1  LIG1       -0.3076
     13  O1         4.0150   56.9880   -8.7260 O.2     1  LIG1       -0.2449
     14  O2         3.4390   55.2520   -7.6910 O.3     1  LIG1       -0.4769
     15  O3         3.1860   56.6480   -5.6400 O.3     1  LIG1       -0.3561
     16  O4         3.2240   60.8680   -5.2100 O.3     1  LIG1       -0.3897
     17  O5         1.6550   57.2650   -6.5940 O.3     1  LIG1       -0.3321
     18  O6        -0.5390   56.1350   -5.7770 O.3     1  LIG1       -0.3865
     19  O7        -1.8210   57.6270   -3.4870 O.3     1  LIG1       -0.3869
     20  O8        -3.8050   58.5410   -5.4680 O.3     1  LIG1       -0.3924
     21  O9        -0.5900   60.7030   -6.4050 O.2     1  LIG1       -0.2761
     22  H1         0.8310   60.4040   -3.6660 H       1  LIG1        0.1491
     23  H2         3.4760   57.2150   -4.8990 H       1  LIG1        0.2133
     24  H3         2.5530   61.4330   -4.7760 H       1  LIG1        0.2099
     25  H4         0.1780   55.7110   -5.2580 H       1  LIG1        0.2100
     26  H5        -2.6660   58.0580   -3.3040 H       1  LIG1        0.2100
     27  H6        -3.4140   59.3700   -5.8070 H       1  LIG1        0.2095
     28  H7         2.6790   54.8380   -7.3320 H       1  LIG1        0.2952
     29 H           3.7821   59.3572   -7.6096 H       1  LIG1        0.0349
     30 H           4.4027   59.0142   -5.9852 H       1  LIG1        0.0349
     31 H           1.9709   60.4223   -6.8058 H       1  LIG1        0.0614
     32 H           1.9782   58.6850   -4.3162 H       1  LIG1        0.0550
     33 H           0.2113   58.7836   -6.6918 H       1  LIG1        0.0643
     34 H           0.3610   57.1425   -4.2162 H       1  LIG1        0.0646
     35 H          -1.3540   59.0994   -4.9403 H       1  LIG1        0.0643
     36 H          -3.0094   56.6651   -5.4573 H       1  LIG1        0.0584
     37 H          -2.4116   57.7431   -6.7119 H       1  LIG1        0.0584
     38 H          -0.7026   61.9094   -3.3682 H       1  LIG1        0.0322
     39 H          -2.1366   61.6571   -4.3342 H       1  LIG1        0.0322
     40 H          -0.9873   62.8943   -4.7830 H       1  LIG1        0.0322
@<TRIPOS>BOND
     1     1    13    2
     2     1    14    1
     3     1     2    1
     4     2     3    1
     5     2    15    1
     6     2    17    1
     7     3     4    1
     8     4     5    1
     9     4    16    1
    10     5     6    1
    11     5    12    1
    12     6     7    1
    13     6    17    1
    14     7     8    1
    15     7    18    1
    16     8     9    1
    17     8    19    1
    18     9    20    1
    19    10    11    1
    20    10    12   am
    21    10    21    2
    22    12    22    1
    23    14    28    1
    24    15    23    1
    25    16    24    1
    26    18    25    1
    27    19    26    1
    28    20    27    1
    29     3    29    1
    30     3    30    1
    31     4    31    1
    32     5    32    1
    33     6    33    1
    34     7    34    1
    35     8    35    1
    36     9    36    1
    37     9    37    1
    38    11    38    1
    39    11    39    1
    40    11    40    1
