@<TRIPOS>MOLECULE
pose3.pdb
 40 40 0 0 0
SMALL
GASTEIGER

@<TRIPOS>ATOM
      1  C1        -1.2550   59.3970   -4.3390 C.2     1  LIG1        0.3651
      2  C2        -2.4630   59.4870   -5.2750 C.3     1  LIG1        0.2704
      3  C3        -3.0990   60.7530   -5.8340 C.3     1  LIG1        0.0403
      4  C4        -3.8550   60.5120   -7.1310 C.3     1  LIG1        0.0815
      5  C5        -4.3150   59.0630   -7.2740 C.3     1  LIG1        0.0779
      6  C6        -3.0800   58.1570   -7.2930 C.3     1  LIG1        0.1114
      7  C7        -3.4700   56.6670   -7.3090 C.3     1  LIG1        0.1111
      8  C8        -2.8080   55.9040   -8.4580 C.3     1  LIG1        0.1065
      9  C9        -1.2690   55.7520   -8.3650 C.3     1  LIG1        0.0727
     10  C10       -6.3030   58.9130   -8.8120 C.2     1  LIG1        0.2103
     11  C11       -6.6920   58.9480  -10.2810 C.3     1  LIG1        0.0122
     12  N1        -5.0170   59.0200   -8.5440 N.am    1  LIG1       -0.3076
     13  O1        -0.6280   60.4710   -4.2940 O.2     1  LIG1       -0.2449
     14  O2        -0.7320   58.4530   -3.7170 O.3     1  LIG1       -0.4769
     15  O3        -3.1750   58.5900   -4.4200 O.3     1  LIG1       -0.3561
     16  O4        -5.0050   61.3250   -7.0980 O.3     1  LIG1       -0.3897
     17  O5        -2.2990   58.3210   -6.0910 O.3     1  LIG1       -0.3321
     18  O6        -3.0700   56.0100   -6.1170 O.3     1  LIG1       -0.3865
     19  O7        -3.3460   54.6040   -8.3700 O.3     1  LIG1       -0.3869
     20  O8        -0.8640   55.4750   -7.0330 O.3     1  LIG1       -0.3924
     21  O9        -7.1110   58.7620   -7.8940 O.2     1  LIG1       -0.2761
     22  H1        -4.3610   59.1600   -9.2690 H       1  LIG1        0.1491
     23  H2        -2.7420   57.7320   -4.5900 H       1  LIG1        0.2133
     24  H3        -5.4580   61.1320   -6.2530 H       1  LIG1        0.2099
     25  H4        -3.9890   55.6670   -6.0690 H       1  LIG1        0.2100
     26  H5        -2.6900   54.1160   -7.8530 H       1  LIG1        0.2100
     27  H6        -1.1680   56.2970   -6.6020 H       1  LIG1        0.2095
     28  H7         0.1910   58.4510   -3.5590 H       1  LIG1        0.2952
     29 H          -2.3269   61.4708   -6.0171 H       1  LIG1        0.0349
     30 H          -3.8054   61.1039   -5.1109 H       1  LIG1        0.0349
     31 H          -3.2051   60.7355   -7.9511 H       1  LIG1        0.0614
     32 H          -4.9440   58.7325   -6.4740 H       1  LIG1        0.0550
     33 H          -2.5350   58.4328   -8.1715 H       1  LIG1        0.0643
     34 H          -4.5344   56.6609   -7.4185 H       1  LIG1        0.0646
     35 H          -2.9934   56.4443   -9.3628 H       1  LIG1        0.0643
     36 H          -0.8075   56.6614   -8.6889 H       1  LIG1        0.0584
     37 H          -0.9691   54.9360   -8.9888 H       1  LIG1        0.0584
     38 H          -5.8158   59.0893  -10.8787 H       1  LIG1        0.0322
     39 H          -7.3734   59.7554  -10.4504 H       1  LIG1        0.0322
     40 H          -7.1606   58.0239  -10.5480 H       1  LIG1        0.0322
@<TRIPOS>BOND
     1     1    13    2
     2     1    14    1
     3     1     2    1
     4     2     3    1
     5     2    15    1
     6     2    17    1
     7     3     4    1
     8     4     5    1
     9     4    16    1
    10     5     6    1
    11     5    12    1
    12     6     7    1
    13     6    17    1
    14     7     8    1
    15     7    18    1
    16     8     9    1
    17     8    19    1
    18     9    20    1
    19    10    11    1
    20    10    12   am
    21    10    21    2
    22    12    22    1
    23    14    28    1
    24    15    23    1
    25    16    24    1
    26    18    25    1
    27    19    26    1
    28    20    27    1
    29     3    29    1
    30     3    30    1
    31     4    31    1
    32     5    32    1
    33     6    33    1
    34     7    34    1
    35     8    35    1
    36     9    36    1
    37     9    37    1
    38    11    38    1
    39    11    39    1
    40    11    40    1
