@<TRIPOS>MOLECULE
pose6.pdb
 40 40 0 0 0
SMALL
GASTEIGER

@<TRIPOS>ATOM
      1  C1        -4.1240   58.2960   -3.8370 C.2     1  LIG1        0.3651
      2  C2        -2.8590   58.2980   -4.7000 C.3     1  LIG1        0.2704
      3  C3        -2.6500   57.5780   -6.0260 C.3     1  LIG1        0.0403
      4  C4        -1.5720   58.2200   -6.8840 C.3     1  LIG1        0.0815
      5  C5        -0.5660   59.0140   -6.0540 C.3     1  LIG1        0.0779
      6  C6        -1.3080   60.1460   -5.3360 C.3     1  LIG1        0.1114
      7  C7        -0.3790   60.9150   -4.3790 C.3     1  LIG1        0.1111
      8  C8        -1.1550   61.7260   -3.3400 C.3     1  LIG1        0.1065
      9  C9        -0.2950   62.5330   -2.3370 C.3     1  LIG1        0.0727
     10  C10        0.3320   60.6210   -7.7730 C.2     1  LIG1        0.2103
     11  C11        1.5430   60.8870   -8.6520 C.3     1  LIG1        0.0122
     12  N1         0.3810   59.5380   -7.0220 N.am    1  LIG1       -0.3076
     13  O1        -4.7530   59.3650   -3.9420 O.2     1  LIG1       -0.2449
     14  O2        -4.5730   57.4990   -2.9930 O.3     1  LIG1       -0.4769
     15  O3        -2.0830   57.9960   -3.5380 O.3     1  LIG1       -0.3561
     16  O4        -0.8740   57.1760   -7.5210 O.3     1  LIG1       -0.3897
     17  O5        -2.3550   59.6240   -4.4920 O.3     1  LIG1       -0.3321
     18  O6         0.4600   60.0360   -3.6470 O.3     1  LIG1       -0.3865
     19  O7        -1.8770   62.6690   -4.1010 O.3     1  LIG1       -0.3869
     20  O8        -0.4250   62.0150   -1.0220 O.3     1  LIG1       -0.3924
     21  O9        -0.6720   61.3340   -7.7570 O.2     1  LIG1       -0.2761
     22  H1         1.1870   58.9680   -7.0120 H       1  LIG1        0.1491
     23  H2        -2.2950   57.0580   -3.3690 H       1  LIG1        0.2133
     24  H3        -1.4220   56.8960   -8.2810 H       1  LIG1        0.2099
     25  H4         1.1470   60.2270   -4.3220 H       1  LIG1        0.2100
     26  H5        -2.5330   63.0140   -3.4790 H       1  LIG1        0.2100
     27  H6         0.2680   61.3270   -1.0550 H       1  LIG1        0.2095
     28  H7        -5.3330   57.7250   -2.4930 H       1  LIG1        0.2952
     29 H          -3.5714   57.5898   -6.5699 H       1  LIG1        0.0349
     30 H          -2.3319   56.5809   -5.8034 H       1  LIG1        0.0349
     31 H          -2.0387   58.8946   -7.5711 H       1  LIG1        0.0614
     32 H          -0.0712   58.4297   -5.3065 H       1  LIG1        0.0550
     33 H          -1.6883   60.7777   -6.1114 H       1  LIG1        0.0643
     34 H           0.1924   61.5630   -5.0103 H       1  LIG1        0.0646
     35 H          -1.7264   61.0420   -2.7479 H       1  LIG1        0.0643
     36 H          -0.6153   63.5539   -2.3440 H       1  LIG1        0.0584
     37 H           0.7309   62.4594   -2.6320 H       1  LIG1        0.0584
     38 H           2.2791   60.1288   -8.4840 H       1  LIG1        0.0322
     39 H           1.9555   61.8443   -8.4107 H       1  LIG1        0.0322
     40 H           1.2470   60.8751   -9.6802 H       1  LIG1        0.0322
@<TRIPOS>BOND
     1     1    13    2
     2     1    14    1
     3     1     2    1
     4     2     3    1
     5     2    15    1
     6     2    17    1
     7     3     4    1
     8     4     5    1
     9     4    16    1
    10     5     6    1
    11     5    12    1
    12     6     7    1
    13     6    17    1
    14     7     8    1
    15     7    18    1
    16     8     9    1
    17     8    19    1
    18     9    20    1
    19    10    11    1
    20    10    12   am
    21    10    21    2
    22    12    22    1
    23    14    28    1
    24    15    23    1
    25    16    24    1
    26    18    25    1
    27    19    26    1
    28    20    27    1
    29     3    29    1
    30     3    30    1
    31     4    31    1
    32     5    32    1
    33     6    33    1
    34     7    34    1
    35     8    35    1
    36     9    36    1
    37     9    37    1
    38    11    38    1
    39    11    39    1
    40    11    40    1
