@<TRIPOS>MOLECULE
pose6.pdb
 40 40 0 0 0
SMALL
GASTEIGER

@<TRIPOS>ATOM
      1  C1        -2.4000   57.5740   -5.1120 C.2     1  LIG1        0.3651
      2  C2        -2.0940   56.7880   -6.3900 C.3     1  LIG1        0.2704
      3  C3        -0.9210   55.8460   -6.6300 C.3     1  LIG1        0.0403
      4  C4        -1.2040   54.8150   -7.7120 C.3     1  LIG1        0.0815
      5  C5        -2.2750   55.2830   -8.6930 C.3     1  LIG1        0.0779
      6  C6        -3.5820   55.5010   -7.9240 C.3     1  LIG1        0.1114
      7  C7        -4.6790   56.0950   -8.8270 C.3     1  LIG1        0.1111
      8  C8        -5.4570   55.0170   -9.5840 C.3     1  LIG1        0.1065
      9  C9        -6.6760   54.4200   -8.8390 C.3     1  LIG1        0.0727
     10  C10       -2.3870   54.2030  -10.9660 C.2     1  LIG1        0.2103
     11  C11       -2.5050   52.8500  -11.6490 C.3     1  LIG1        0.0122
     12  N1        -2.4040   54.1960   -9.6470 N.am    1  LIG1       -0.3076
     13  O1        -2.0460   56.9510   -4.0940 O.2     1  LIG1       -0.2449
     14  O2        -3.0150   58.6340   -4.8950 O.3     1  LIG1       -0.4769
     15  O3        -2.2790   57.9830   -7.1520 O.3     1  LIG1       -0.3561
     16  O4        -0.0080   54.6370   -8.4350 O.3     1  LIG1       -0.3897
     17  O5        -3.4060   56.4720   -6.8710 O.3     1  LIG1       -0.3321
     18  O6        -5.6390   56.8190   -8.0750 O.3     1  LIG1       -0.3865
     19  O7        -5.9660   55.6830  -10.7170 O.3     1  LIG1       -0.3869
     20  O8        -7.3100   53.4180   -9.6190 O.3     1  LIG1       -0.3924
     21  O9        -2.3120   55.2720  -11.5730 O.2     1  LIG1       -0.2761
     22  H1        -2.4460   53.3450   -9.1480 H       1  LIG1        0.1491
     23  H2        -1.3680   58.2230   -7.4100 H       1  LIG1        0.2133
     24  H3         0.5920   54.1210   -7.8610 H       1  LIG1        0.2099
     25  H4        -4.9870   57.5540   -8.0640 H       1  LIG1        0.2100
     26  H5        -5.1800   55.8650  -11.2510 H       1  LIG1        0.2100
     27  H6        -7.8910   53.0310   -8.9360 H       1  LIG1        0.2095
     28  H7        -3.3230   59.1530   -5.6120 H       1  LIG1        0.2952
     29 H          -0.7029   55.3323   -5.7171 H       1  LIG1        0.0349
     30 H          -0.0938   56.4394   -6.9593 H       1  LIG1        0.0349
     31 H          -1.5526   53.9168   -7.2465 H       1  LIG1        0.0614
     32 H          -2.0333   56.2023   -9.1842 H       1  LIG1        0.0550
     33 H          -3.8580   54.5383   -7.5472 H       1  LIG1        0.0643
     34 H          -4.1587   56.7327   -9.5108 H       1  LIG1        0.0646
     35 H          -4.7938   54.1965   -9.7623 H       1  LIG1        0.0643
     36 H          -7.3783   55.2012   -8.6355 H       1  LIG1        0.0584
     37 H          -6.3337   53.9759   -7.9277 H       1  LIG1        0.0584
     38 H          -2.5542   52.0796  -10.9081 H       1  LIG1        0.0322
     39 H          -1.6511   52.6901  -12.2736 H       1  LIG1        0.0322
     40 H          -3.3927   52.8280  -12.2460 H       1  LIG1        0.0322
@<TRIPOS>BOND
     1     1    13    2
     2     1    14    1
     3     1     2    1
     4     2     3    1
     5     2    15    1
     6     2    17    1
     7     3     4    1
     8     4     5    1
     9     4    16    1
    10     5     6    1
    11     5    12    1
    12     6     7    1
    13     6    17    1
    14     7     8    1
    15     7    18    1
    16     8     9    1
    17     8    19    1
    18     9    20    1
    19    10    11    1
    20    10    12   am
    21    10    21    2
    22    12    22    1
    23    14    28    1
    24    15    23    1
    25    16    24    1
    26    18    25    1
    27    19    26    1
    28    20    27    1
    29     3    29    1
    30     3    30    1
    31     4    31    1
    32     5    32    1
    33     6    33    1
    34     7    34    1
    35     8    35    1
    36     9    36    1
    37     9    37    1
    38    11    38    1
    39    11    39    1
    40    11    40    1
