@<TRIPOS>MOLECULE
pose1.pdb
 40 40 0 0 0
SMALL
GASTEIGER

@<TRIPOS>ATOM
      1  C1         1.0800   56.9790   -6.6430 C.2     1  LIG1        0.3651
      2  C2        -0.4280   56.9330   -6.3810 C.3     1  LIG1        0.2704
      3  C3        -1.2860   58.0260   -5.7570 C.3     1  LIG1        0.0403
      4  C4        -2.7500   57.9290   -6.1590 C.3     1  LIG1        0.0815
      5  C5        -3.1470   56.5130   -6.5670 C.3     1  LIG1        0.0779
      6  C6        -2.3140   56.1030   -7.7870 C.3     1  LIG1        0.1114
      7  C7        -2.5710   54.6370   -8.1810 C.3     1  LIG1        0.1111
      8  C8        -1.6770   54.1800   -9.3360 C.3     1  LIG1        0.1065
      9  C9        -0.8360   52.9070   -9.0720 C.3     1  LIG1        0.0727
     10  C10       -5.1690   57.2540   -7.8730 C.2     1  LIG1        0.2103
     11  C11       -6.6780   57.0860   -7.9490 C.3     1  LIG1        0.0122
     12  N1        -4.5560   56.6060   -6.9020 N.am    1  LIG1       -0.3076
     13  O1         1.6340   57.8720   -5.9740 O.2     1  LIG1       -0.2449
     14  O2         1.8190   56.3880   -7.4510 O.3     1  LIG1       -0.4769
     15  O3        -0.2680   55.6500   -5.7710 O.3     1  LIG1       -0.3561
     16  O4        -3.5130   58.2800   -5.0280 O.3     1  LIG1       -0.3897
     17  O5        -0.9030   56.1650   -7.4930 O.3     1  LIG1       -0.3321
     18  O6        -2.3050   53.7520   -7.1040 O.3     1  LIG1       -0.3865
     19  O7        -2.5800   53.8580  -10.3700 O.3     1  LIG1       -0.3869
     20  O8        -0.0100   53.0690   -7.9290 O.3     1  LIG1       -0.3924
     21  O9        -4.5210   57.9710   -8.6360 O.2     1  LIG1       -0.2761
     22  H1        -5.0620   56.0130   -6.2940 H       1  LIG1        0.1491
     23  H2         0.0590   55.8690   -4.8780 H       1  LIG1        0.2133
     24  H3        -3.0340   57.9310   -4.2500 H       1  LIG1        0.2099
     25  H4        -2.8770   53.1070   -7.5720 H       1  LIG1        0.2100
     26  H5        -2.3660   54.4900  -11.0690 H       1  LIG1        0.2100
     27  H6         0.5750   53.7790   -8.2580 H       1  LIG1        0.2095
     28  H7         2.7510   56.4360   -7.3560 H       1  LIG1        0.2952
     29 H          -0.9082   58.9771   -6.0693 H       1  LIG1        0.0349
     30 H          -1.2355   57.9077   -4.6948 H       1  LIG1        0.0349
     31 H          -2.9182   58.5731   -6.9967 H       1  LIG1        0.0614
     32 H          -2.9784   55.7836   -5.8025 H       1  LIG1        0.0550
     33 H          -2.5954   56.7775   -8.5685 H       1  LIG1        0.0643
     34 H          -3.6016   54.6041   -8.4666 H       1  LIG1        0.0646
     35 H          -0.9710   54.9590   -9.5348 H       1  LIG1        0.0643
     36 H          -0.2191   52.7125   -9.9244 H       1  LIG1        0.0584
     37 H          -1.5030   52.0890   -8.8965 H       1  LIG1        0.0584
     38 H          -7.0012   56.4145   -7.1812 H       1  LIG1        0.0322
     39 H          -6.9449   56.6886   -8.9059 H       1  LIG1        0.0322
     40 H          -7.1500   58.0366   -7.8134 H       1  LIG1        0.0322
@<TRIPOS>BOND
     1     1    13    2
     2     1    14    1
     3     1     2    1
     4     2     3    1
     5     2    15    1
     6     2    17    1
     7     3     4    1
     8     4     5    1
     9     4    16    1
    10     5     6    1
    11     5    12    1
    12     6     7    1
    13     6    17    1
    14     7     8    1
    15     7    18    1
    16     8     9    1
    17     8    19    1
    18     9    20    1
    19    10    11    1
    20    10    12   am
    21    10    21    2
    22    12    22    1
    23    14    28    1
    24    15    23    1
    25    16    24    1
    26    18    25    1
    27    19    26    1
    28    20    27    1
    29     3    29    1
    30     3    30    1
    31     4    31    1
    32     5    32    1
    33     6    33    1
    34     7    34    1
    35     8    35    1
    36     9    36    1
    37     9    37    1
    38    11    38    1
    39    11    39    1
    40    11    40    1
