@<TRIPOS>MOLECULE
pose4.pdb
 40 40 0 0 0
SMALL
GASTEIGER

@<TRIPOS>ATOM
      1  C1        -7.4930   57.5490   -8.4440 C.2     1  LIG1        0.3651
      2  C2        -6.4180   56.4630   -8.3600 C.3     1  LIG1        0.2704
      3  C3        -6.0800   55.4210   -9.4190 C.3     1  LIG1        0.0403
      4  C4        -4.6550   54.9020   -9.3030 C.3     1  LIG1        0.0815
      5  C5        -4.0970   55.0500   -7.8910 C.3     1  LIG1        0.0779
      6  C6        -4.0670   56.5390   -7.5290 C.3     1  LIG1        0.1114
      7  C7        -3.6310   56.7590   -6.0690 C.3     1  LIG1        0.1111
      8  C8        -2.1330   57.0450   -5.9440 C.3     1  LIG1        0.1065
      9  C9        -1.6790   58.4560   -6.3920 C.3     1  LIG1        0.0727
     10  C10       -2.1060   53.7040   -7.1370 C.2     1  LIG1        0.2103
     11  C11       -0.7070   53.2870   -7.5610 C.3     1  LIG1        0.0122
     12  N1        -2.7550   54.5010   -7.9630 N.am    1  LIG1       -0.3076
     13  O1        -8.6050   57.0730   -8.7360 O.2     1  LIG1       -0.2449
     14  O2        -7.4500   58.7920   -8.3850 O.3     1  LIG1       -0.4769
     15  O3        -6.9040   56.1020   -7.0650 O.3     1  LIG1       -0.3561
     16  O4        -4.6910   53.5270   -9.6080 O.3     1  LIG1       -0.3897
     17  O5        -5.3860   57.1170   -7.6120 O.3     1  LIG1       -0.3321
     18  O6        -4.2940   57.8720   -5.4890 O.3     1  LIG1       -0.3865
     19  O7        -1.8750   56.9600   -4.5610 O.3     1  LIG1       -0.3869
     20  O8        -1.4050   58.4850   -7.7850 O.3     1  LIG1       -0.3924
     21  O9        -2.6280   53.3650   -6.0740 O.2     1  LIG1       -0.2761
     22  H1        -2.3550   54.7660   -8.8260 H       1  LIG1        0.1491
     23  H2        -6.1680   55.5790   -6.6910 H       1  LIG1        0.2133
     24  H3        -4.9380   53.0650   -8.7830 H       1  LIG1        0.2099
     25  H4        -4.5460   57.2640   -4.7590 H       1  LIG1        0.2100
     26  H5        -0.9110   57.0170   -4.5020 H       1  LIG1        0.2100
     27  H6        -0.5480   58.9540   -7.7670 H       1  LIG1        0.2095
     28  H7        -6.7760   59.2150   -7.8890 H       1  LIG1        0.2952
     29 H          -6.2051   55.8630  -10.3854 H       1  LIG1        0.0349
     30 H          -6.7379   54.5898   -9.2740 H       1  LIG1        0.0349
     31 H          -4.0307   55.4647   -9.9652 H       1  LIG1        0.0614
     32 H          -4.6798   54.5497   -7.1461 H       1  LIG1        0.0550
     33 H          -3.3826   56.9890   -8.2175 H       1  LIG1        0.0643
     34 H          -3.8823   55.8489   -5.5656 H       1  LIG1        0.0646
     35 H          -1.6120   56.3569   -6.5764 H       1  LIG1        0.0643
     36 H          -0.7931   58.7251   -5.8556 H       1  LIG1        0.0584
     37 H          -2.4677   59.1490   -6.1856 H       1  LIG1        0.0584
     38 H          -0.4845   53.7077   -8.5193 H       1  LIG1        0.0322
     39 H          -0.6552   52.2198   -7.6192 H       1  LIG1        0.0322
     40 H           0.0034   53.6400   -6.8429 H       1  LIG1        0.0322
@<TRIPOS>BOND
     1     1    13    2
     2     1    14    1
     3     1     2    1
     4     2     3    1
     5     2    15    1
     6     2    17    1
     7     3     4    1
     8     4     5    1
     9     4    16    1
    10     5     6    1
    11     5    12    1
    12     6     7    1
    13     6    17    1
    14     7     8    1
    15     7    18    1
    16     8     9    1
    17     8    19    1
    18     9    20    1
    19    10    11    1
    20    10    12   am
    21    10    21    2
    22    12    22    1
    23    14    28    1
    24    15    23    1
    25    16    24    1
    26    18    25    1
    27    19    26    1
    28    20    27    1
    29     3    29    1
    30     3    30    1
    31     4    31    1
    32     5    32    1
    33     6    33    1
    34     7    34    1
    35     8    35    1
    36     9    36    1
    37     9    37    1
    38    11    38    1
    39    11    39    1
    40    11    40    1
