@<TRIPOS>MOLECULE
pose0.pdb
 40 40 0 0 0
SMALL
GASTEIGER

@<TRIPOS>ATOM
      1  C1        -2.0530   56.8660   -5.7560 C.2     1  LIG1        0.3651
      2  C2        -1.2940   55.8830   -6.6510 C.3     1  LIG1        0.2704
      3  C3        -1.8890   54.9230   -7.6730 C.3     1  LIG1        0.0403
      4  C4        -0.9020   54.5350   -8.7630 C.3     1  LIG1        0.0815
      5  C5         0.5480   54.6760   -8.3100 C.3     1  LIG1        0.0779
      6  C6         0.8130   56.1440   -7.9620 C.3     1  LIG1        0.1114
      7  C7         2.2230   56.3430   -7.3760 C.3     1  LIG1        0.1111
      8  C8         3.2290   56.8170   -8.4270 C.3     1  LIG1        0.1065
      9  C9         3.9840   58.1270   -8.0930 C.3     1  LIG1        0.0727
     10  C10        2.0780   53.1850   -9.6440 C.2     1  LIG1        0.2103
     11  C11        2.7360   53.0500  -11.0080 C.3     1  LIG1        0.0122
     12  N1         1.3370   54.2590   -9.4550 N.am    1  LIG1       -0.3076
     13  O1        -3.2400   56.9890   -6.1130 O.2     1  LIG1       -0.2449
     14  O2        -1.6970   57.6260   -4.8370 O.3     1  LIG1       -0.4769
     15  O3        -0.5690   55.4240   -5.5070 O.3     1  LIG1       -0.3561
     16  O4        -1.1280   53.1770   -9.0610 O.3     1  LIG1       -0.3897
     17  O5        -0.0840   56.6000   -6.9270 O.3     1  LIG1       -0.3321
     18  O6         2.2290   57.3270   -6.3530 O.3     1  LIG1       -0.3865
     19  O7         4.1980   55.7940   -8.4690 O.3     1  LIG1       -0.3869
     20  O8         4.6630   58.0210   -6.8520 O.3     1  LIG1       -0.3924
     21  O9         2.2290   52.3750   -8.7280 O.2     1  LIG1       -0.2761
     22  H1         1.1930   54.9070  -10.1870 H       1  LIG1        0.1491
     23  H2        -1.0920   54.6550   -5.2080 H       1  LIG1        0.2133
     24  H3        -2.0980   53.0590   -9.1080 H       1  LIG1        0.2099
     25  H4         1.5710   56.7630   -5.8910 H       1  LIG1        0.2100
     26  H5         3.8570   55.1790   -9.1330 H       1  LIG1        0.2100
     27  H6         5.0990   58.8950   -6.8350 H       1  LIG1        0.2095
     28  H7        -2.2430   58.3440   -4.5840 H       1  LIG1        0.2952
     29 H          -2.7355   55.3917   -8.1297 H       1  LIG1        0.0349
     30 H          -2.1623   54.0286   -7.1532 H       1  LIG1        0.0349
     31 H          -1.0497   55.1809   -9.6032 H       1  LIG1        0.0614
     32 H           0.7838   54.0926   -7.4446 H       1  LIG1        0.0550
     33 H           0.6855   56.6836   -8.8771 H       1  LIG1        0.0643
     34 H           2.5021   55.3829   -6.9950 H       1  LIG1        0.0646
     35 H           2.6925   57.0134   -9.3317 H       1  LIG1        0.0643
     36 H           3.2810   58.9319   -8.0395 H       1  LIG1        0.0584
     37 H           4.7057   58.3096   -8.8616 H       1  LIG1        0.0584
     38 H           2.4499   53.8758  -11.6253 H       1  LIG1        0.0322
     39 H           2.4215   52.1360  -11.4668 H       1  LIG1        0.0322
     40 H           3.7996   53.0432  -10.8918 H       1  LIG1        0.0322
@<TRIPOS>BOND
     1     1    13    2
     2     1    14    1
     3     1     2    1
     4     2     3    1
     5     2    15    1
     6     2    17    1
     7     3     4    1
     8     4     5    1
     9     4    16    1
    10     5     6    1
    11     5    12    1
    12     6     7    1
    13     6    17    1
    14     7     8    1
    15     7    18    1
    16     8     9    1
    17     8    19    1
    18     9    20    1
    19    10    11    1
    20    10    12   am
    21    10    21    2
    22    12    22    1
    23    14    28    1
    24    15    23    1
    25    16    24    1
    26    18    25    1
    27    19    26    1
    28    20    27    1
    29     3    29    1
    30     3    30    1
    31     4    31    1
    32     5    32    1
    33     6    33    1
    34     7    34    1
    35     8    35    1
    36     9    36    1
    37     9    37    1
    38    11    38    1
    39    11    39    1
    40    11    40    1
