@<TRIPOS>MOLECULE
pose4.pdb
 40 40 0 0 0
SMALL
GASTEIGER

@<TRIPOS>ATOM
      1  C1        -6.6840   58.3940   -7.8270 C.2     1  LIG1        0.3651
      2  C2        -5.3790   57.6000   -7.9280 C.3     1  LIG1        0.2704
      3  C3        -4.9520   56.6750   -9.0610 C.3     1  LIG1        0.0403
      4  C4        -3.4430   56.5160   -9.1570 C.3     1  LIG1        0.0815
      5  C5        -2.7460   56.7890   -7.8270 C.3     1  LIG1        0.0779
      6  C6        -3.0220   58.2390   -7.4180 C.3     1  LIG1        0.1114
      7  C7        -2.4540   58.5530   -6.0210 C.3     1  LIG1        0.1111
      8  C8        -2.4030   60.0560   -5.7370 C.3     1  LIG1        0.1065
      9  C9        -3.7750   60.7510   -5.5500 C.3     1  LIG1        0.0727
     10  C10       -0.4160   55.9210   -7.4220 C.2     1  LIG1        0.2103
     11  C11        0.9720   55.8730   -8.0370 C.3     1  LIG1        0.0122
     12  N1        -1.3350   56.5820   -8.0990 N.am    1  LIG1       -0.3076
     13  O1        -6.4710   59.6180   -7.7470 O.2     1  LIG1       -0.2449
     14  O2        -7.8760   58.0560   -7.7030 O.3     1  LIG1       -0.4769
     15  O3        -5.5800   57.1270   -6.5940 O.3     1  LIG1       -0.3561
     16  O4        -3.1910   55.1740   -9.5050 O.3     1  LIG1       -0.3897
     17  O5        -4.4400   58.4820   -7.3010 O.3     1  LIG1       -0.3321
     18  O6        -3.2500   57.9840   -4.9940 O.3     1  LIG1       -0.3865
     19  O7        -1.7300   60.1560   -4.5030 O.3     1  LIG1       -0.3869
     20  O8        -3.6770   61.8320   -4.6360 O.3     1  LIG1       -0.3924
     21  O9        -0.7020   55.4120   -6.3370 O.2     1  LIG1       -0.2761
     22  H1        -1.1240   56.9790   -8.9780 H       1  LIG1        0.1491
     23  H2        -5.4890   56.1590   -6.6870 H       1  LIG1        0.2133
     24  H3        -3.0160   55.1640  -10.4680 H       1  LIG1        0.2099
     25  H4        -2.4340   57.5220   -4.7020 H       1  LIG1        0.2100
     26  H5        -2.2200   59.5560   -3.9230 H       1  LIG1        0.2100
     27  H6        -4.4860   61.6700   -4.1130 H       1  LIG1        0.2095
     28  H7        -8.0900   57.1840   -7.4340 H       1  LIG1        0.2952
     29 H          -5.3125   57.0773   -9.9846 H       1  LIG1        0.0349
     30 H          -5.3649   55.7086   -8.8599 H       1  LIG1        0.0349
     31 H          -3.0698   57.2153   -9.8758 H       1  LIG1        0.0614
     32 H          -3.0832   56.1597   -7.0300 H       1  LIG1        0.0550
     33 H          -2.5667   58.8424   -8.1753 H       1  LIG1        0.0643
     34 H          -1.4677   58.1382   -6.0239 H       1  LIG1        0.0646
     35 H          -1.9457   60.5353   -6.5773 H       1  LIG1        0.0643
     36 H          -4.4799   60.0386   -5.1751 H       1  LIG1        0.0584
     37 H          -4.0955   61.1330   -6.4967 H       1  LIG1        0.0584
     38 H           0.9635   56.3843   -8.9769 H       1  LIG1        0.0322
     39 H           1.2601   54.8537   -8.1880 H       1  LIG1        0.0322
     40 H           1.6701   56.3473   -7.3793 H       1  LIG1        0.0322
@<TRIPOS>BOND
     1     1    13    2
     2     1    14    1
     3     1     2    1
     4     2     3    1
     5     2    15    1
     6     2    17    1
     7     3     4    1
     8     4     5    1
     9     4    16    1
    10     5     6    1
    11     5    12    1
    12     6     7    1
    13     6    17    1
    14     7     8    1
    15     7    18    1
    16     8     9    1
    17     8    19    1
    18     9    20    1
    19    10    11    1
    20    10    12   am
    21    10    21    2
    22    12    22    1
    23    14    28    1
    24    15    23    1
    25    16    24    1
    26    18    25    1
    27    19    26    1
    28    20    27    1
    29     3    29    1
    30     3    30    1
    31     4    31    1
    32     5    32    1
    33     6    33    1
    34     7    34    1
    35     8    35    1
    36     9    36    1
    37     9    37    1
    38    11    38    1
    39    11    39    1
    40    11    40    1
