FXV.pdb
  rDOCK(R)          3D
libRbt.so/2013.1/901 2013/11/27
 38 40  0  0  0  0  0  0  0  0999 V2000
   11.0466    3.2884   18.2448 C   0  0  0  0  0  0
    9.9147    4.1689   18.2190 C   0  0  0  0  0  0
    9.3303    4.4794   16.9375 C   0  0  0  0  0  0
    9.8798    3.9172   15.7386 C   0  0  0  0  0  0
   10.9648    3.0764   15.7763 N   0  0  0  0  0  0
   11.5356    2.7694   17.0089 C   0  0  0  0  0  0
    7.4031    5.6297   20.8008 C   0  0  0  0  0  0
    8.2552    5.8019   21.9753 C   0  0  0  0  0  0
    9.6443    5.4332   21.8649 C   0  0  0  0  0  0
   10.1821    4.9127   20.6497 C   0  0  0  0  0  0
    9.3567    4.7341   19.4901 C   0  0  0  0  0  0
    7.9706    5.1022   19.5927 C   0  0  0  0  0  0
    7.7778    6.3088   23.2571 C   0  0  0  0  0  0
    7.1516    5.3950   24.0239 N   0  0  0  0  0  0
    6.6455    5.6838   25.3419 C   0  0  0  0  0  0
    7.2178    4.6205   26.3044 C   0  0  0  0  0  0
    5.0730    5.7198   25.2717 C   0  0  0  0  0  0
    4.6134    5.4167   23.8335 C   0  0  0  0  0  0
    5.1175    6.3176   22.9474 O   0  0  0  0  0  0
    4.4374    7.0846   25.7997 C   0  0  0  0  0  0
    5.2840    9.3947   24.8537 C   0  0  0  0  0  0
    6.1972   10.5349   24.9111 C   0  0  0  0  0  0
    7.2048   10.5645   25.9578 C   0  0  0  0  0  0
    7.2977    9.5014   26.9120 C   0  0  0  0  0  0
    6.3932    8.3825   26.8455 C   0  0  0  0  0  0
    5.3729    8.3038   25.8261 C   0  0  0  0  0  0
    6.1120   11.6291   23.9408 C   0  0  0  0  0  0
    6.1307   12.9093   24.3233 N   0  0  0  0  0  0
    6.0182   11.3378   22.6311 N   0  0  0  0  0  0
    3.9007    4.5184   23.5466 O   0  0  0  0  0  0
    7.9529    7.4860   23.6245 O   0  0  0  0  0  0
    4.5779    6.4818   21.6335 C   0  0  0  0  0  0
   11.4890    2.5416   14.6378 O   0  0  0  0  0  0
    7.0339    4.4853   23.6662 H   0  0  0  0  0  0
    6.1991   13.1366   25.2787 H   0  0  0  0  0  0
    6.0034   10.3989   22.3355 H   0  0  0  0  0  0
    5.9643   12.0636   21.9680 H   0  0  0  0  0  0
   12.0766    3.1888   14.2174 H   0  0  0  0  0  0
  1  2  1  0  0  0
  1  6  2  0  0  0
  2  3  1  0  0  0
  2 11  1  0  0  0
  3  4  2  0  0  0
  4  5  1  0  0  0
  5  6  1  0  0  0
  5 33  1  0  0  0
  7  8  2  0  0  0
  7 12  1  0  0  0
  8  9  1  0  0  0
  8 13  1  0  0  0
  9 10  2  0  0  0
 10 11  1  0  0  0
 11 12  2  0  0  0
 13 14  1  0  0  0
 13 31  2  0  0  0
 14 15  1  0  0  0
 14 34  1  0  0  0
 15 16  1  0  0  0
 15 17  1  0  0  0
 17 18  1  0  0  0
 17 20  1  0  0  0
 18 19  1  0  0  0
 18 30  2  0  0  0
 19 32  1  0  0  0
 20 26  1  0  0  0
 21 22  2  0  0  0
 21 26  1  0  0  0
 22 23  1  0  0  0
 22 27  1  0  0  0
 23 24  2  0  0  0
 24 25  1  0  0  0
 25 26  2  0  0  0
 27 28  2  0  0  0
 27 29  1  0  0  0
 28 35  1  0  0  0
 29 36  1  0  0  0
 29 37  1  0  0  0
 33 38  1  0  0  0
M  END
>  <CHROM.0>
-73.98990381,64.58687829,12.07928051

>  <CHROM.1>
26.81627473,81.73866461,80.44932344,-127.37249048,0.79412230,-59.17737055
20.65121430,-163.04162600,105.55185610,132.81755975,7.47790658,6.45082497
22.17059918,0.60657916,-1.03164798,-3.04096191

>  <FORMUL>
      FXV    C25 H27 N4 O4 1+

>  <HET>
 FXV  A 401      33

>  <HETNAM>
     FXV METHYL-3-(4'-N-OXOPYRIDYLPHENOYL)-3-METHYL-2-(M-AMIDINO
   2 FXV BENZYL)-PROPIONATE

>  <HETSYN>
     FXV FXV673

>  <Name>
FXV.pdb

>  <RI>
0

>  <Rbt.Current_Directory>
/home/malgorzata/Desktop/rDOCK_IFD/Wyniki/8a_factor_Xa2

>  <Rbt.Executable>
rbdock ($Id: //depot/dev/client3/rdock/2013.1/src/exe/rbdock.cxx#4 $)

>  <Rbt.Library>
libRbt.so (2013.1, Build901 2013/11/27)

>  <Rbt.Parameter_File>
/home/malgorzata/Desktop/rDock_2013.1_src/data/scripts/soft_docking.prm

>  <Rbt.Receptor>
cavity.prm

>  <SCORE>
-6.27462

>  <SCORE.INTER>
-4.744

>  <SCORE.INTER.CONST>
1

>  <SCORE.INTER.POLAR>
-0.916515

>  <SCORE.INTER.REPUL>
0.356618

>  <SCORE.INTER.ROT>
9

>  <SCORE.INTER.VDW>
-17.8109

>  <SCORE.INTER.norm>
-0.143758

>  <SCORE.INTRA>
2.98851

>  <SCORE.INTRA.DIHEDRAL>
29.0969

>  <SCORE.INTRA.DIHEDRAL.0>
8.37942

>  <SCORE.INTRA.POLAR>
0

>  <SCORE.INTRA.POLAR.0>
0

>  <SCORE.INTRA.REPUL>
0

>  <SCORE.INTRA.REPUL.0>
0

>  <SCORE.INTRA.VDW>
-2.83086

>  <SCORE.INTRA.VDW.0>
-0.0658046

>  <SCORE.INTRA.norm>
0.090561

>  <SCORE.RESTR>
0

>  <SCORE.RESTR.CAVITY>
0

>  <SCORE.RESTR.norm>
0

>  <SCORE.SYSTEM>
-4.51913

>  <SCORE.SYSTEM.CONST>
0

>  <SCORE.SYSTEM.DIHEDRAL>
1.1997

>  <SCORE.SYSTEM.POLAR>
-1.00667

>  <SCORE.SYSTEM.VDW>
-1.69631

>  <SCORE.SYSTEM.norm>
-0.136943

>  <SCORE.heavy>
33

>  <SCORE.norm>
-0.19014

$$$$
FXV.pdb
  rDOCK(R)          3D
libRbt.so/2013.1/901 2013/11/27
 38 40  0  0  0  0  0  0  0  0999 V2000
    4.0409    9.8035   26.6570 C   0  0  0  0  0  0
    5.1494    9.5526   25.7821 C   0  0  0  0  0  0
    6.4694    9.8987   26.2489 C   0  0  0  0  0  0
    6.6466   10.4765   27.5490 C   0  0  0  0  0  0
    5.5770   10.7132   28.3770 N   0  0  0  0  0  0
    4.2984   10.3814   27.9359 C   0  0  0  0  0  0
    5.4979    7.1738   22.7280 C   0  0  0  0  0  0
    4.4930    7.7161   21.8164 C   0  0  0  0  0  0
    3.7369    8.8653   22.2471 C   0  0  0  0  0  0
    3.9538    9.4630   23.5247 C   0  0  0  0  0  0
    4.9338    8.9388   24.4318 C   0  0  0  0  0  0
    5.6933    7.7940   24.0074 C   0  0  0  0  0  0
    4.1990    7.1517   20.5038 C   0  0  0  0  0  0
    4.3826    5.8202   20.4115 N   0  0  0  0  0  0
    4.1066    5.0662   19.2149 C   0  0  0  0  0  0
    2.7180    4.4126   19.3855 C   0  0  0  0  0  0
    5.2839    4.0453   18.9901 C   0  0  0  0  0  0
    5.4306    3.1452   20.2311 C   0  0  0  0  0  0
    6.2712    3.6936   21.1496 O   0  0  0  0  0  0
    6.6724    4.7375   18.6181 C   0  0  0  0  0  0
    6.1998    7.3229   18.4172 C   0  0  0  0  0  0
    6.4004    8.6929   18.8864 C   0  0  0  0  0  0
    7.2677    8.9139   20.0313 C   0  0  0  0  0  0
    7.9081    7.8132   20.6852 C   0  0  0  0  0  0
    7.7039    6.4676   20.2139 C   0  0  0  0  0  0
    6.8513    6.1922   19.0809 C   0  0  0  0  0  0
    5.7504    9.8276   18.2261 C   0  0  0  0  0  0
    4.4526    9.8058   17.9091 N   0  0  0  0  0  0
    6.4774   10.9215   17.9365 N   0  0  0  0  0  0
    4.8868    2.1031   20.3553 O   0  0  0  0  0  0
    3.7902    7.8401   19.5496 O   0  0  0  0  0  0
    6.6073    3.0299   22.3706 C   0  0  0  0  0  0
    5.7433   11.2630   29.6126 O   0  0  0  0  0  0
    4.7221    5.3387   21.2003 H   0  0  0  0  0  0
    3.9088    9.0115   18.1155 H   0  0  0  0  0  0
    7.4347   10.9509   18.1645 H   0  0  0  0  0  0
    6.0523   11.6928   17.4964 H   0  0  0  0  0  0
    5.1008   10.8761   30.2278 H   0  0  0  0  0  0
  1  2  1  0  0  0
  1  6  2  0  0  0
  2  3  1  0  0  0
  2 11  1  0  0  0
  3  4  2  0  0  0
  4  5  1  0  0  0
  5  6  1  0  0  0
  5 33  1  0  0  0
  7  8  2  0  0  0
  7 12  1  0  0  0
  8  9  1  0  0  0
  8 13  1  0  0  0
  9 10  2  0  0  0
 10 11  1  0  0  0
 11 12  2  0  0  0
 13 14  1  0  0  0
 13 31  2  0  0  0
 14 15  1  0  0  0
 14 34  1  0  0  0
 15 16  1  0  0  0
 15 17  1  0  0  0
 17 18  1  0  0  0
 17 20  1  0  0  0
 18 19  1  0  0  0
 18 30  2  0  0  0
 19 32  1  0  0  0
 20 26  1  0  0  0
 21 22  2  0  0  0
 21 26  1  0  0  0
 22 23  1  0  0  0
 22 27  1  0  0  0
 23 24  2  0  0  0
 24 25  1  0  0  0
 25 26  2  0  0  0
 27 28  2  0  0  0
 27 29  1  0  0  0
 28 35  1  0  0  0
 29 36  1  0  0  0
 29 37  1  0  0  0
 33 38  1  0  0  0
M  END
>  <CHROM.0>
-57.04072039,57.91983172,73.14281613

>  <CHROM.1>
50.23700222,-144.60224978,30.69056523,-98.85526610,57.00414398,-88.76562019
24.44798231,-177.86959864,-75.69413905,46.74019035,5.42899225,7.51188477
21.92154728,1.73802744,1.50254141,0.86729023

>  <FORMUL>
      FXV    C25 H27 N4 O4 1+

>  <HET>
 FXV  A 401      33

>  <HETNAM>
     FXV METHYL-3-(4'-N-OXOPYRIDYLPHENOYL)-3-METHYL-2-(M-AMIDINO
   2 FXV BENZYL)-PROPIONATE

>  <HETSYN>
     FXV FXV673

>  <Name>
FXV.pdb

>  <RI>
0

>  <Rbt.Current_Directory>
/home/malgorzata/Desktop/rDOCK_IFD/Wyniki/8a_factor_Xa2

>  <Rbt.Executable>
rbdock ($Id: //depot/dev/client3/rdock/2013.1/src/exe/rbdock.cxx#4 $)

>  <Rbt.Library>
libRbt.so (2013.1, Build901 2013/11/27)

>  <Rbt.Parameter_File>
/home/malgorzata/Desktop/rDock_2013.1_src/data/scripts/soft_docking.prm

>  <Rbt.Receptor>
cavity.prm

>  <SCORE>
-15.5341

>  <SCORE.INTER>
-5.41011

>  <SCORE.INTER.CONST>
1

>  <SCORE.INTER.POLAR>
-1.60996

>  <SCORE.INTER.REPUL>
0

>  <SCORE.INTER.ROT>
9

>  <SCORE.INTER.VDW>
-14.3363

>  <SCORE.INTER.norm>
-0.163943

>  <SCORE.INTRA>
-4.75198

>  <SCORE.INTRA.DIHEDRAL>
10.9194

>  <SCORE.INTRA.DIHEDRAL.0>
8.37942

>  <SCORE.INTRA.POLAR>
-0.652691

>  <SCORE.INTRA.POLAR.0>
0

>  <SCORE.INTRA.REPUL>
0

>  <SCORE.INTRA.REPUL.0>
0

>  <SCORE.INTRA.VDW>
-4.71672

>  <SCORE.INTRA.VDW.0>
-0.0658046

>  <SCORE.INTRA.norm>
-0.143999

>  <SCORE.RESTR>
1.78359

>  <SCORE.RESTR.CAVITY>
0.356718

>  <SCORE.RESTR.norm>
0.0540482

>  <SCORE.SYSTEM>
-7.15561

>  <SCORE.SYSTEM.CONST>
0

>  <SCORE.SYSTEM.DIHEDRAL>
1.20032

>  <SCORE.SYSTEM.POLAR>
-1.64913

>  <SCORE.SYSTEM.VDW>
-2.14873

>  <SCORE.SYSTEM.norm>
-0.216837

>  <SCORE.heavy>
33

>  <SCORE.norm>
-0.470731

$$$$
FXV.pdb
  rDOCK(R)          3D
libRbt.so/2013.1/901 2013/11/27
 38 40  0  0  0  0  0  0  0  0999 V2000
   10.0188    2.1255   13.3800 C   0  0  0  0  0  0
   10.4810    2.0206   14.7337 C   0  0  0  0  0  0
   11.4632    1.0083   15.0350 C   0  0  0  0  0  0
   11.9479    0.1425   14.0001 C   0  0  0  0  0  0
   11.4966    0.2521   12.7079 N   0  0  0  0  0  0
   10.5490    1.2271   12.4066 C   0  0  0  0  0  0
   10.3926    4.5091   17.7182 C   0  0  0  0  0  0
    8.9612    4.7788   17.8342 C   0  0  0  0  0  0
    8.0697    4.1135   16.9176 C   0  0  0  0  0  0
    8.5595    3.2171   15.9210 C   0  0  0  0  0  0
    9.9624    2.9461   15.7925 C   0  0  0  0  0  0
   10.8571    3.6047   16.7053 C   0  0  0  0  0  0
    8.3845    5.6948   18.8121 C   0  0  0  0  0  0
    9.1611    5.9292   19.8877 N   0  0  0  0  0  0
    8.7925    6.8363   20.9450 C   0  0  0  0  0  0
    9.6646    8.1022   20.7985 C   0  0  0  0  0  0
    8.9574    6.0874   22.3201 C   0  0  0  0  0  0
    9.5150    4.6731   22.0740 C   0  0  0  0  0  0
    8.5166    3.7657   21.8989 O   0  0  0  0  0  0
    7.6185    6.0318   23.1860 C   0  0  0  0  0  0
    7.4938    6.9380   25.6581 C   0  0  0  0  0  0
    7.6832    6.7448   27.0948 C   0  0  0  0  0  0
    8.1856    5.4637   27.5620 C   0  0  0  0  0  0
    8.4851    4.4149   26.6348 C   0  0  0  0  0  0
    8.2954    4.6166   25.2214 C   0  0  0  0  0  0
    7.7979    5.8701   24.7039 C   0  0  0  0  0  0
    7.3800    7.8100   28.0536 C   0  0  0  0  0  0
    7.3875    7.5908   29.3717 N   0  0  0  0  0  0
    7.0921    9.0414   27.5957 N   0  0  0  0  0  0
   10.6685    4.4155   22.0545 O   0  0  0  0  0  0
    7.2729    6.2349   18.6569 O   0  0  0  0  0  0
    8.4016    2.9748   20.7134 C   0  0  0  0  0  0
   11.9555   -0.5704   11.7231 O   0  0  0  0  0  0
   10.0228    5.4576   19.9547 H   0  0  0  0  0  0
    7.5966    6.6942   29.7204 H   0  0  0  0  0  0
    7.0831    9.2167   26.6270 H   0  0  0  0  0  0
    6.8904    9.7675   28.2293 H   0  0  0  0  0  0
   11.5648   -1.4518   11.8298 H   0  0  0  0  0  0
  1  2  1  0  0  0
  1  6  2  0  0  0
  2  3  1  0  0  0
  2 11  1  0  0  0
  3  4  2  0  0  0
  4  5  1  0  0  0
  5  6  1  0  0  0
  5 33  1  0  0  0
  7  8  2  0  0  0
  7 12  1  0  0  0
  8  9  1  0  0  0
  8 13  1  0  0  0
  9 10  2  0  0  0
 10 11  1  0  0  0
 11 12  2  0  0  0
 13 14  1  0  0  0
 13 31  2  0  0  0
 14 15  1  0  0  0
 14 34  1  0  0  0
 15 16  1  0  0  0
 15 17  1  0  0  0
 17 18  1  0  0  0
 17 20  1  0  0  0
 18 19  1  0  0  0
 18 30  2  0  0  0
 19 32  1  0  0  0
 20 26  1  0  0  0
 21 22  2  0  0  0
 21 26  1  0  0  0
 22 23  1  0  0  0
 22 27  1  0  0  0
 23 24  2  0  0  0
 24 25  1  0  0  0
 25 26  2  0  0  0
 27 28  2  0  0  0
 27 29  1  0  0  0
 28 35  1  0  0  0
 29 36  1  0  0  0
 29 37  1  0  0  0
 33 38  1  0  0  0
M  END
>  <CHROM.0>
-22.67883241,-83.87880316,56.59071217

>  <CHROM.1>
46.24758331,74.32849698,-21.88458666,-106.53644491,2.61649815,-90.31778070
-155.44014781,121.86967621,110.41531317,171.39566319,9.14434516,4.49936303
20.23748993,0.97884315,1.18135774,-1.41575498

>  <FORMUL>
      FXV    C25 H27 N4 O4 1+

>  <HET>
 FXV  A 401      33

>  <HETNAM>
     FXV METHYL-3-(4'-N-OXOPYRIDYLPHENOYL)-3-METHYL-2-(M-AMIDINO
   2 FXV BENZYL)-PROPIONATE

>  <HETSYN>
     FXV FXV673

>  <Name>
FXV.pdb

>  <RI>
0

>  <Rbt.Current_Directory>
/home/malgorzata/Desktop/rDOCK_IFD/Wyniki/8a_factor_Xa2

>  <Rbt.Executable>
rbdock ($Id: //depot/dev/client3/rdock/2013.1/src/exe/rbdock.cxx#4 $)

>  <Rbt.Library>
libRbt.so (2013.1, Build901 2013/11/27)

>  <Rbt.Parameter_File>
/home/malgorzata/Desktop/rDock_2013.1_src/data/scripts/soft_docking.prm

>  <Rbt.Receptor>
cavity.prm

>  <SCORE>
-14.4152

>  <SCORE.INTER>
-11.468

>  <SCORE.INTER.CONST>
1

>  <SCORE.INTER.POLAR>
-0.0941589

>  <SCORE.INTER.REPUL>
0

>  <SCORE.INTER.ROT>
9

>  <SCORE.INTER.VDW>
-25.5479

>  <SCORE.INTER.norm>
-0.347516

>  <SCORE.INTRA>
3.31346

>  <SCORE.INTRA.DIHEDRAL>
25.9458

>  <SCORE.INTRA.DIHEDRAL.0>
8.37942

>  <SCORE.INTRA.POLAR>
0

>  <SCORE.INTRA.POLAR.0>
0

>  <SCORE.INTRA.REPUL>
0

>  <SCORE.INTRA.REPUL.0>
0

>  <SCORE.INTRA.VDW>
-1.8757

>  <SCORE.INTRA.VDW.0>
-0.0658046

>  <SCORE.INTRA.norm>
0.100408

>  <SCORE.RESTR>
0.200002

>  <SCORE.RESTR.CAVITY>
0.0400004

>  <SCORE.RESTR.norm>
0.00606066

>  <SCORE.SYSTEM>
-6.46064

>  <SCORE.SYSTEM.CONST>
0

>  <SCORE.SYSTEM.DIHEDRAL>
1.2003

>  <SCORE.SYSTEM.POLAR>
-1.49174

>  <SCORE.SYSTEM.VDW>
-1.98888

>  <SCORE.SYSTEM.norm>
-0.195777

>  <SCORE.heavy>
33

>  <SCORE.norm>
-0.436825

$$$$
FXV.pdb
  rDOCK(R)          3D
libRbt.so/2013.1/901 2013/11/27
 38 40  0  0  0  0  0  0  0  0999 V2000
    7.8693    0.8219   20.3544 C   0  0  0  0  0  0
    7.2408    1.0818   21.6172 C   0  0  0  0  0  0
    6.1531    0.2243   22.0189 C   0  0  0  0  0  0
    5.7267   -0.8474   21.1674 C   0  0  0  0  0  0
    6.3356   -1.0854   19.9598 N   0  0  0  0  0  0
    7.3878   -0.2637   19.5634 C   0  0  0  0  0  0
    8.2034    4.6523   22.8143 C   0  0  0  0  0  0
    8.6024    4.4013   24.1974 C   0  0  0  0  0  0
    8.5460    3.0456   24.6838 C   0  0  0  0  0  0
    8.1134    1.9724   23.8485 C   0  0  0  0  0  0
    7.7146    2.2044   22.4901 C   0  0  0  0  0  0
    7.7708    3.5541   21.9978 C   0  0  0  0  0  0
    9.0376    5.4453   25.1187 C   0  0  0  0  0  0
    8.1331    5.7744   26.0615 N   0  0  0  0  0  0
    8.3856    6.7505   27.0911 C   0  0  0  0  0  0
    8.6675    5.9836   28.4015 C   0  0  0  0  0  0
    7.1529    7.7274   27.1605 C   0  0  0  0  0  0
    7.1443    8.6367   25.9177 C   0  0  0  0  0  0
    7.8797    9.7637   26.1179 O   0  0  0  0  0  0
    7.0915    8.5903   28.5011 C   0  0  0  0  0  0
    4.7299    9.6722   28.0536 C   0  0  0  0  0  0
    3.8400   10.8320   28.0617 C   0  0  0  0  0  0
    4.3664   12.1069   28.5197 C   0  0  0  0  0  0
    5.7251   12.2215   28.9553 C   0  0  0  0  0  0
    6.5932   11.0722   28.9425 C   0  0  0  0  0  0
    6.1207    9.7817   28.4978 C   0  0  0  0  0  0
    2.4476   10.7275   27.6188 C   0  0  0  0  0  0
    1.5481   11.6742   27.9018 N   0  0  0  0  0  0
    2.0661    9.6538   26.9042 N   0  0  0  0  0  0
    6.5580    8.3847   24.9227 O   0  0  0  0  0  0
   10.1626    5.9759   25.0542 O   0  0  0  0  0  0
    7.8695   10.8571   25.1966 C   0  0  0  0  0  0
    5.9314   -2.1030   19.1487 O   0  0  0  0  0  0
    7.2567    5.3261   26.0462 H   0  0  0  0  0  0
    1.8140   12.4653   28.4240 H   0  0  0  0  0  0
    2.7186    8.9489   26.6885 H   0  0  0  0  0  0
    1.1343    9.5728   26.5967 H   0  0  0  0  0  0
    5.2286   -2.6069   19.5881 H   0  0  0  0  0  0
  1  2  1  0  0  0
  1  6  2  0  0  0
  2  3  1  0  0  0
  2 11  1  0  0  0
  3  4  2  0  0  0
  4  5  1  0  0  0
  5  6  1  0  0  0
  5 33  1  0  0  0
  7  8  2  0  0  0
  7 12  1  0  0  0
  8  9  1  0  0  0
  8 13  1  0  0  0
  9 10  2  0  0  0
 10 11  1  0  0  0
 11 12  2  0  0  0
 13 14  1  0  0  0
 13 31  2  0  0  0
 14 15  1  0  0  0
 14 34  1  0  0  0
 15 16  1  0  0  0
 15 17  1  0  0  0
 17 18  1  0  0  0
 17 20  1  0  0  0
 18 19  1  0  0  0
 18 30  2  0  0  0
 19 32  1  0  0  0
 20 26  1  0  0  0
 21 22  2  0  0  0
 21 26  1  0  0  0
 22 23  1  0  0  0
 22 27  1  0  0  0
 23 24  2  0  0  0
 24 25  1  0  0  0
 25 26  2  0  0  0
 27 28  2  0  0  0
 27 29  1  0  0  0
 28 35  1  0  0  0
 29 36  1  0  0  0
 29 37  1  0  0  0
 33 38  1  0  0  0
M  END
>  <CHROM.0>
109.71704171,-23.34260482,98.75937625

>  <CHROM.1>
-124.65194238,-3.19008472,105.77373398,-103.37603163,-71.54348058,-88.30697539
166.24450610,-170.49819148,48.57501866,164.34444404,6.69099643,6.04211058
25.03800962,1.40936652,0.17447513,-2.52781219

>  <FORMUL>
      FXV    C25 H27 N4 O4 1+

>  <HET>
 FXV  A 401      33

>  <HETNAM>
     FXV METHYL-3-(4'-N-OXOPYRIDYLPHENOYL)-3-METHYL-2-(M-AMIDINO
   2 FXV BENZYL)-PROPIONATE

>  <HETSYN>
     FXV FXV673

>  <Name>
FXV.pdb

>  <RI>
0

>  <Rbt.Current_Directory>
/home/malgorzata/Desktop/rDOCK_IFD/Wyniki/8a_factor_Xa2

>  <Rbt.Executable>
rbdock ($Id: //depot/dev/client3/rdock/2013.1/src/exe/rbdock.cxx#4 $)

>  <Rbt.Library>
libRbt.so (2013.1, Build901 2013/11/27)

>  <Rbt.Parameter_File>
/home/malgorzata/Desktop/rDock_2013.1_src/data/scripts/soft_docking.prm

>  <Rbt.Receptor>
cavity.prm

>  <SCORE>
-12.0423

>  <SCORE.INTER>
-8.70589

>  <SCORE.INTER.CONST>
1

>  <SCORE.INTER.POLAR>
-1.08254

>  <SCORE.INTER.REPUL>
0

>  <SCORE.INTER.ROT>
9

>  <SCORE.INTER.VDW>
-19.4253

>  <SCORE.INTER.norm>
-0.263815

>  <SCORE.INTRA>
0.242729

>  <SCORE.INTRA.DIHEDRAL>
10.6232

>  <SCORE.INTRA.DIHEDRAL.0>
8.37942

>  <SCORE.INTRA.POLAR>
0

>  <SCORE.INTRA.POLAR.0>
0

>  <SCORE.INTRA.REPUL>
0

>  <SCORE.INTRA.REPUL.0>
0

>  <SCORE.INTRA.VDW>
-1.88191

>  <SCORE.INTRA.VDW.0>
-0.0658046

>  <SCORE.INTRA.norm>
0.00735541

>  <SCORE.RESTR>
0.400031

>  <SCORE.RESTR.CAVITY>
0.0800063

>  <SCORE.RESTR.norm>
0.0121222

>  <SCORE.SYSTEM>
-3.97912

>  <SCORE.SYSTEM.CONST>
0

>  <SCORE.SYSTEM.DIHEDRAL>
1.19984

>  <SCORE.SYSTEM.POLAR>
-0.858716

>  <SCORE.SYSTEM.VDW>
-1.65941

>  <SCORE.SYSTEM.norm>
-0.12058

>  <SCORE.heavy>
33

>  <SCORE.norm>
-0.364917

$$$$
FXV.pdb
  rDOCK(R)          3D
libRbt.so/2013.1/901 2013/11/27
 38 40  0  0  0  0  0  0  0  0999 V2000
    6.5990    4.5783   20.9538 C   0  0  0  0  0  0
    6.5080    5.9744   21.2699 C   0  0  0  0  0  0
    6.2917    6.8993   20.1846 C   0  0  0  0  0  0
    6.1764    6.4185   18.8389 C   0  0  0  0  0  0
    6.2667    5.0794   18.5489 N   0  0  0  0  0  0
    6.4742    4.1781   19.5899 C   0  0  0  0  0  0
    5.6490    7.6677   24.6614 C   0  0  0  0  0  0
    6.8263    7.3377   25.4615 C   0  0  0  0  0  0
    7.8743    6.5677   24.8399 C   0  0  0  0  0  0
    7.7750    6.1336   23.4840 C   0  0  0  0  0  0
    6.6234    6.4463   22.6878 C   0  0  0  0  0  0
    5.5753    7.2162   23.3011 C   0  0  0  0  0  0
    6.9944    7.7276   26.8572 C   0  0  0  0  0  0
    6.4930    8.9394   27.1657 N   0  0  0  0  0  0
    6.5190    9.4888   28.4976 C   0  0  0  0  0  0
    5.2077    9.0731   29.1992 C   0  0  0  0  0  0
    6.7339   11.0447   28.3875 C   0  0  0  0  0  0
    5.4667   11.7011   27.8087 C   0  0  0  0  0  0
    5.1880   12.8806   28.4268 O   0  0  0  0  0  0
    8.0263   11.4569   27.5477 C   0  0  0  0  0  0
    7.0099   12.2077   25.2345 C   0  0  0  0  0  0
    6.9197   12.0743   23.7815 C   0  0  0  0  0  0
    7.7383   11.0688   23.1251 C   0  0  0  0  0  0
    8.6147   10.2306   23.8858 C   0  0  0  0  0  0
    8.6950   10.3704   25.3171 C   0  0  0  0  0  0
    7.9040   11.3542   26.0191 C   0  0  0  0  0  0
    6.0271   12.9262   22.9918 C   0  0  0  0  0  0
    5.2637   12.4277   22.0150 N   0  0  0  0  0  0
    5.9705   14.2428   23.2605 N   0  0  0  0  0  0
    4.8164   11.2253   26.9438 O   0  0  0  0  0  0
    7.5382    6.9917   27.7023 O   0  0  0  0  0  0
    4.1789   13.7740   27.9497 C   0  0  0  0  0  0
    6.1581    4.6205   17.2704 O   0  0  0  0  0  0
    6.0889    9.4759   26.4458 H   0  0  0  0  0  0
    5.2954   11.4658   21.8078 H   0  0  0  0  0  0
    6.5276   14.6233   23.9776 H   0  0  0  0  0  0
    5.3719   14.8262   22.7402 H   0  0  0  0  0  0
    6.5427    3.7320   17.2121 H   0  0  0  0  0  0
  1  2  1  0  0  0
  1  6  2  0  0  0
  2  3  1  0  0  0
  2 11  1  0  0  0
  3  4  2  0  0  0
  4  5  1  0  0  0
  5  6  1  0  0  0
  5 33  1  0  0  0
  7  8  2  0  0  0
  7 12  1  0  0  0
  8  9  1  0  0  0
  8 13  1  0  0  0
  9 10  2  0  0  0
 10 11  1  0  0  0
 11 12  2  0  0  0
 13 14  1  0  0  0
 13 31  2  0  0  0
 14 15  1  0  0  0
 14 34  1  0  0  0
 15 16  1  0  0  0
 15 17  1  0  0  0
 17 18  1  0  0  0
 17 20  1  0  0  0
 18 19  1  0  0  0
 18 30  2  0  0  0
 19 32  1  0  0  0
 20 26  1  0  0  0
 21 22  2  0  0  0
 21 26  1  0  0  0
 22 23  1  0  0  0
 22 27  1  0  0  0
 23 24  2  0  0  0
 24 25  1  0  0  0
 25 26  2  0  0  0
 27 28  2  0  0  0
 27 29  1  0  0  0
 28 35  1  0  0  0
 29 36  1  0  0  0
 29 37  1  0  0  0
 33 38  1  0  0  0
M  END
>  <CHROM.0>
-146.70678555,-102.46289603,51.02878572

>  <CHROM.1>
56.58289221,160.49137604,-36.23230586,-90.89695414,70.04525706,140.25982832
76.96614350,170.92639214,66.39899970,-135.98693747,6.50516163,9.13797521
24.35760451,-1.24348254,-1.44708761,1.20047049

>  <FORMUL>
      FXV    C25 H27 N4 O4 1+

>  <HET>
 FXV  A 401      33

>  <HETNAM>
     FXV METHYL-3-(4'-N-OXOPYRIDYLPHENOYL)-3-METHYL-2-(M-AMIDINO
   2 FXV BENZYL)-PROPIONATE

>  <HETSYN>
     FXV FXV673

>  <Name>
FXV.pdb

>  <RI>
0

>  <Rbt.Current_Directory>
/home/malgorzata/Desktop/rDOCK_IFD/Wyniki/8a_factor_Xa2

>  <Rbt.Executable>
rbdock ($Id: //depot/dev/client3/rdock/2013.1/src/exe/rbdock.cxx#4 $)

>  <Rbt.Library>
libRbt.so (2013.1, Build901 2013/11/27)

>  <Rbt.Parameter_File>
/home/malgorzata/Desktop/rDock_2013.1_src/data/scripts/soft_docking.prm

>  <Rbt.Receptor>
cavity.prm

>  <SCORE>
-12.3711

>  <SCORE.INTER>
-6.94796

>  <SCORE.INTER.CONST>
1

>  <SCORE.INTER.POLAR>
0

>  <SCORE.INTER.REPUL>
0.178364

>  <SCORE.INTER.ROT>
9

>  <SCORE.INTER.VDW>
-22.2398

>  <SCORE.INTER.norm>
-0.210544

>  <SCORE.INTRA>
-2.66079

>  <SCORE.INTRA.DIHEDRAL>
10.0981

>  <SCORE.INTRA.DIHEDRAL.0>
8.37942

>  <SCORE.INTRA.POLAR>
0

>  <SCORE.INTRA.POLAR.0>
0

>  <SCORE.INTRA.REPUL>
0

>  <SCORE.INTRA.REPUL.0>
0

>  <SCORE.INTRA.VDW>
-4.68042

>  <SCORE.INTRA.VDW.0>
-0.0658046

>  <SCORE.INTRA.norm>
-0.0806301

>  <SCORE.RESTR>
1.64404

>  <SCORE.RESTR.CAVITY>
0.328808

>  <SCORE.RESTR.norm>
0.0498195

>  <SCORE.SYSTEM>
-4.40642

>  <SCORE.SYSTEM.CONST>
0

>  <SCORE.SYSTEM.DIHEDRAL>
1.2001

>  <SCORE.SYSTEM.POLAR>
-0.988492

>  <SCORE.SYSTEM.VDW>
-1.64559

>  <SCORE.SYSTEM.norm>
-0.133528

>  <SCORE.heavy>
33

>  <SCORE.norm>
-0.374883

$$$$
FXV.pdb
  rDOCK(R)          3D
libRbt.so/2013.1/901 2013/11/27
 38 40  0  0  0  0  0  0  0  0999 V2000
    5.2884   11.1407   28.0241 C   0  0  0  0  0  0
    4.8773   11.8158   26.8272 C   0  0  0  0  0  0
    3.8523   12.8242   26.9394 C   0  0  0  0  0  0
    3.2734   13.1259   28.2158 C   0  0  0  0  0  0
    3.6747   12.4716   29.3544 N   0  0  0  0  0  0
    4.6646   11.4971   29.2569 C   0  0  0  0  0  0
    5.6903   11.8665   23.0267 C   0  0  0  0  0  0
    6.7564   10.8711   22.9405 C   0  0  0  0  0  0
    7.1638   10.2074   24.1535 C   0  0  0  0  0  0
    6.5521   10.5070   25.4076 C   0  0  0  0  0  0
    5.5074   11.4850   25.5081 C   0  0  0  0  0  0
    5.0945   12.1490   24.3015 C   0  0  0  0  0  0
    7.4436   10.5228   21.7017 C   0  0  0  0  0  0
    6.6859   10.6236   20.5923 N   0  0  0  0  0  0
    7.1890   10.3665   19.2666 C   0  0  0  0  0  0
    6.6364   11.4682   18.3364 C   0  0  0  0  0  0
    6.7798    8.9024   18.8570 C   0  0  0  0  0  0
    6.2163    8.1615   20.0837 C   0  0  0  0  0  0
    4.8558    8.1679   20.0900 O   0  0  0  0  0  0
    7.9610    8.0710   18.1793 C   0  0  0  0  0  0
    8.5282    5.8575   16.8651 C   0  0  0  0  0  0
    8.1195    4.5702   16.3057 C   0  0  0  0  0  0
    6.7385    4.1490   16.4713 C   0  0  0  0  0  0
    5.8017    4.9764   17.1692 C   0  0  0  0  0  0
    6.2152    6.2432   17.7157 C   0  0  0  0  0  0
    7.5757    6.7090   17.5802 C   0  0  0  0  0  0
    9.0687    3.7143   15.5899 C   0  0  0  0  0  0
    8.9780    3.5150   14.2718 N   0  0  0  0  0  0
   10.0601    3.1184   16.2761 N   0  0  0  0  0  0
    6.8899    7.6636   20.9178 O   0  0  0  0  0  0
    8.6406   10.1803   21.6676 O   0  0  0  0  0  0
    4.0918    7.3900   21.0148 C   0  0  0  0  0  0
    3.1252   12.7565   30.5684 O   0  0  0  0  0  0
    5.7422   10.8858   20.6921 H   0  0  0  0  0  0
    8.2573    3.9452   13.7573 H   0  0  0  0  0  0
   10.1386    3.2566   17.2477 H   0  0  0  0  0  0
   10.7074    2.5438   15.8068 H   0  0  0  0  0  0
    3.1687   11.9706   31.1354 H   0  0  0  0  0  0
  1  2  1  0  0  0
  1  6  2  0  0  0
  2  3  1  0  0  0
  2 11  1  0  0  0
  3  4  2  0  0  0
  4  5  1  0  0  0
  5  6  1  0  0  0
  5 33  1  0  0  0
  7  8  2  0  0  0
  7 12  1  0  0  0
  8  9  1  0  0  0
  8 13  1  0  0  0
  9 10  2  0  0  0
 10 11  1  0  0  0
 11 12  2  0  0  0
 13 14  1  0  0  0
 13 31  2  0  0  0
 14 15  1  0  0  0
 14 34  1  0  0  0
 15 16  1  0  0  0
 15 17  1  0  0  0
 17 18  1  0  0  0
 17 20  1  0  0  0
 18 19  1  0  0  0
 18 30  2  0  0  0
 19 32  1  0  0  0
 20 26  1  0  0  0
 21 22  2  0  0  0
 21 26  1  0  0  0
 22 23  1  0  0  0
 22 27  1  0  0  0
 23 24  2  0  0  0
 24 25  1  0  0  0
 25 26  2  0  0  0
 27 28  2  0  0  0
 27 29  1  0  0  0
 28 35  1  0  0  0
 29 36  1  0  0  0
 29 37  1  0  0  0
 33 38  1  0  0  0
M  END
>  <CHROM.0>
-79.79095783,26.73136982,52.85250666

>  <CHROM.1>
-1.18263398,151.94766172,-31.43949705,-137.21524839,-10.19026887,98.60737757
-171.76190786,170.96454341,176.82363468,-110.50247333,6.35402197,8.99672355
21.63190394,2.36082356,1.19672560,0.25960365

>  <FORMUL>
      FXV    C25 H27 N4 O4 1+

>  <HET>
 FXV  A 401      33

>  <HETNAM>
     FXV METHYL-3-(4'-N-OXOPYRIDYLPHENOYL)-3-METHYL-2-(M-AMIDINO
   2 FXV BENZYL)-PROPIONATE

>  <HETSYN>
     FXV FXV673

>  <Name>
FXV.pdb

>  <RI>
0

>  <Rbt.Current_Directory>
/home/malgorzata/Desktop/rDOCK_IFD/Wyniki/8a_factor_Xa2

>  <Rbt.Executable>
rbdock ($Id: //depot/dev/client3/rdock/2013.1/src/exe/rbdock.cxx#4 $)

>  <Rbt.Library>
libRbt.so (2013.1, Build901 2013/11/27)

>  <Rbt.Parameter_File>
/home/malgorzata/Desktop/rDock_2013.1_src/data/scripts/soft_docking.prm

>  <Rbt.Receptor>
cavity.prm

>  <SCORE>
-14.5007

>  <SCORE.INTER>
-11.942

>  <SCORE.INTER.CONST>
1

>  <SCORE.INTER.POLAR>
-0.694517

>  <SCORE.INTER.REPUL>
0.237394

>  <SCORE.INTER.ROT>
9

>  <SCORE.INTER.VDW>
-25.1677

>  <SCORE.INTER.norm>
-0.36188

>  <SCORE.INTRA>
2.01652

>  <SCORE.INTRA.DIHEDRAL>
18.7631

>  <SCORE.INTRA.DIHEDRAL.0>
8.37942

>  <SCORE.INTRA.POLAR>
0

>  <SCORE.INTRA.POLAR.0>
0

>  <SCORE.INTRA.REPUL>
0

>  <SCORE.INTRA.REPUL.0>
0

>  <SCORE.INTRA.VDW>
-1.7361

>  <SCORE.INTRA.VDW.0>
-0.0658046

>  <SCORE.INTRA.norm>
0.0611067

>  <SCORE.RESTR>
1.93

>  <SCORE.RESTR.CAVITY>
0.385999

>  <SCORE.RESTR.norm>
0.0584847

>  <SCORE.SYSTEM>
-6.50512

>  <SCORE.SYSTEM.CONST>
0

>  <SCORE.SYSTEM.DIHEDRAL>
1.20046

>  <SCORE.SYSTEM.POLAR>
-1.54171

>  <SCORE.SYSTEM.VDW>
-1.86354

>  <SCORE.SYSTEM.norm>
-0.197125

>  <SCORE.heavy>
33

>  <SCORE.norm>
-0.439414

$$$$
FXV.pdb
  rDOCK(R)          3D
libRbt.so/2013.1/901 2013/11/27
 38 40  0  0  0  0  0  0  0  0999 V2000
    6.1137    8.2348   26.6401 C   0  0  0  0  0  0
    6.8366    8.6535   25.4742 C   0  0  0  0  0  0
    7.6369    9.8495   25.5698 C   0  0  0  0  0  0
    7.6930   10.5839   26.7998 C   0  0  0  0  0  0
    6.9951   10.1735   27.9089 N   0  0  0  0  0  0
    6.2203    9.0192   27.8272 C   0  0  0  0  0  0
    6.2001    7.7167   21.7560 C   0  0  0  0  0  0
    6.6586    6.3298   21.7193 C   0  0  0  0  0  0
    7.1575    5.7483   22.9403 C   0  0  0  0  0  0
    7.2083    6.4962   24.1547 C   0  0  0  0  0  0
    6.7656    7.8598   24.2047 C   0  0  0  0  0  0
    6.2645    8.4453   22.9908 C   0  0  0  0  0  0
    6.6568    5.5059   20.5155 C   0  0  0  0  0  0
    6.2222    6.1345   19.4059 N   0  0  0  0  0  0
    6.1846    5.5095   18.1080 C   0  0  0  0  0  0
    7.4745    5.9107   17.3599 C   0  0  0  0  0  0
    4.8528    5.9423   17.3883 C   0  0  0  0  0  0
    3.7168    6.0451   18.4229 C   0  0  0  0  0  0
    2.7927    6.9751   18.0596 O   0  0  0  0  0  0
    4.4388    4.9905   16.1767 C   0  0  0  0  0  0
    5.0513    2.7015   17.3313 C   0  0  0  0  0  0
    4.7319    1.3100   17.6461 C   0  0  0  0  0  0
    3.4848    0.7548   17.1476 C   0  0  0  0  0  0
    2.5894    1.5550   16.3684 C   0  0  0  0  0  0
    2.9147    2.9246   16.0637 C   0  0  0  0  0  0
    4.1405    3.5260   16.5351 C   0  0  0  0  0  0
    5.6396    0.4811   18.4428 C   0  0  0  0  0  0
    6.3111   -0.5412   17.9047 N   0  0  0  0  0  0
    5.8057    0.7595   19.7482 N   0  0  0  0  0  0
    3.6691    5.4012   19.4130 O   0  0  0  0  0  0
    7.0457    4.3227   20.5073 O   0  0  0  0  0  0
    1.4423    6.9345   18.5277 C   0  0  0  0  0  0
    7.0465   10.8706   29.0786 O   0  0  0  0  0  0
    5.9152    7.0665   19.4858 H   0  0  0  0  0  0
    6.1989   -0.7559   16.9505 H   0  0  0  0  0  0
    5.3171    1.5098   20.1575 H   0  0  0  0  0  0
    6.4158    0.2129   20.2944 H   0  0  0  0  0  0
    7.1179   11.8188   28.8871 H   0  0  0  0  0  0
  1  2  1  0  0  0
  1  6  2  0  0  0
  2  3  1  0  0  0
  2 11  1  0  0  0
  3  4  2  0  0  0
  4  5  1  0  0  0
  5  6  1  0  0  0
  5 33  1  0  0  0
  7  8  2  0  0  0
  7 12  1  0  0  0
  8  9  1  0  0  0
  8 13  1  0  0  0
  9 10  2  0  0  0
 10 11  1  0  0  0
 11 12  2  0  0  0
 13 14  1  0  0  0
 13 31  2  0  0  0
 14 15  1  0  0  0
 14 34  1  0  0  0
 15 16  1  0  0  0
 15 17  1  0  0  0
 17 18  1  0  0  0
 17 20  1  0  0  0
 18 19  1  0  0  0
 18 30  2  0  0  0
 19 32  1  0  0  0
 20 26  1  0  0  0
 21 22  2  0  0  0
 21 26  1  0  0  0
 22 23  1  0  0  0
 22 27  1  0  0  0
 23 24  2  0  0  0
 24 25  1  0  0  0
 25 26  2  0  0  0
 27 28  2  0  0  0
 27 29  1  0  0  0
 28 35  1  0  0  0
 29 36  1  0  0  0
 29 37  1  0  0  0
 33 38  1  0  0  0
M  END
>  <CHROM.0>
30.65591524,58.82452019,54.12786845

>  <CHROM.1>
-60.88469470,34.53269981,1.49385820,-96.14095416,-36.35109226,150.33146433
62.26022146,156.06181720,-50.60366565,-110.82740049,5.56566354,5.69490456
20.86612313,-1.16256803,0.99278908,-2.54388236

>  <FORMUL>
      FXV    C25 H27 N4 O4 1+

>  <HET>
 FXV  A 401      33

>  <HETNAM>
     FXV METHYL-3-(4'-N-OXOPYRIDYLPHENOYL)-3-METHYL-2-(M-AMIDINO
   2 FXV BENZYL)-PROPIONATE

>  <HETSYN>
     FXV FXV673

>  <Name>
FXV.pdb

>  <RI>
0

>  <Rbt.Current_Directory>
/home/malgorzata/Desktop/rDOCK_IFD/Wyniki/8a_factor_Xa2

>  <Rbt.Executable>
rbdock ($Id: //depot/dev/client3/rdock/2013.1/src/exe/rbdock.cxx#4 $)

>  <Rbt.Library>
libRbt.so (2013.1, Build901 2013/11/27)

>  <Rbt.Parameter_File>
/home/malgorzata/Desktop/rDock_2013.1_src/data/scripts/soft_docking.prm

>  <Rbt.Receptor>
cavity.prm

>  <SCORE>
-10.7358

>  <SCORE.INTER>
-5.67964

>  <SCORE.INTER.CONST>
1

>  <SCORE.INTER.POLAR>
-0.268218

>  <SCORE.INTER.REPUL>
0

>  <SCORE.INTER.ROT>
9

>  <SCORE.INTER.VDW>
-19.1677

>  <SCORE.INTER.norm>
-0.17211

>  <SCORE.INTRA>
0.126544

>  <SCORE.INTRA.DIHEDRAL>
14.3344

>  <SCORE.INTRA.DIHEDRAL.0>
8.37942

>  <SCORE.INTRA.POLAR>
0

>  <SCORE.INTRA.POLAR.0>
0

>  <SCORE.INTRA.REPUL>
0

>  <SCORE.INTRA.REPUL.0>
0

>  <SCORE.INTRA.VDW>
-2.74033

>  <SCORE.INTRA.VDW.0>
-0.0658046

>  <SCORE.INTRA.norm>
0.00383465

>  <SCORE.RESTR>
0

>  <SCORE.RESTR.CAVITY>
0

>  <SCORE.RESTR.norm>
0

>  <SCORE.SYSTEM>
-5.18267

>  <SCORE.SYSTEM.CONST>
0

>  <SCORE.SYSTEM.DIHEDRAL>
1.20002

>  <SCORE.SYSTEM.POLAR>
-1.21154

>  <SCORE.SYSTEM.VDW>
-1.66342

>  <SCORE.SYSTEM.norm>
-0.157051

>  <SCORE.heavy>
33

>  <SCORE.norm>
-0.325326

$$$$
FXV.pdb
  rDOCK(R)          3D
libRbt.so/2013.1/901 2013/11/27
 38 40  0  0  0  0  0  0  0  0999 V2000
    6.6155    6.5595   16.5594 C   0  0  0  0  0  0
    6.9769    6.7656   17.9320 C   0  0  0  0  0  0
    8.0573    5.9769   18.4712 C   0  0  0  0  0  0
    8.7344    5.0204   17.6453 C   0  0  0  0  0  0
    8.3782    4.8312   16.3328 N   0  0  0  0  0  0
    7.3370    5.5888   15.8023 C   0  0  0  0  0  0
    4.3612    8.3756   20.3139 C   0  0  0  0  0  0
    4.8684    9.7411   20.4282 C   0  0  0  0  0  0
    6.0634   10.0836   19.6985 C   0  0  0  0  0  0
    6.7403    9.1249   18.8865 C   0  0  0  0  0  0
    6.2564    7.7796   18.7682 C   0  0  0  0  0  0
    5.0635    7.4320   19.4917 C   0  0  0  0  0  0
    4.2456   10.7721   21.2511 C   0  0  0  0  0  0
    5.0510   11.3010   22.1928 N   0  0  0  0  0  0
    4.6402   12.3612   23.0781 C   0  0  0  0  0  0
    5.3536   13.6524   22.6218 C   0  0  0  0  0  0
    4.9641   11.9257   24.5561 C   0  0  0  0  0  0
    4.3926   12.9656   25.5377 C   0  0  0  0  0  0
    4.0035   12.3884   26.7066 O   0  0  0  0  0  0
    6.5165   11.6761   24.8268 C   0  0  0  0  0  0
    6.9171    9.0854   24.5518 C   0  0  0  0  0  0
    7.2789    7.7870   25.1181 C   0  0  0  0  0  0
    7.6167    7.7159   26.5298 C   0  0  0  0  0  0
    7.5976    8.8924   27.3451 C   0  0  0  0  0  0
    7.2389   10.1663   26.7767 C   0  0  0  0  0  0
    6.8955   10.2929   25.3794 C   0  0  0  0  0  0
    7.3026    6.5760   24.2943 C   0  0  0  0  0  0
    7.2955    6.6350   22.9594 N   0  0  0  0  0  0
    7.3379    5.3741   24.8969 N   0  0  0  0  0  0
    4.2960   14.1178   25.2922 O   0  0  0  0  0  0
    3.0705   11.1499   21.0843 O   0  0  0  0  0  0
    4.1383   13.0490   27.9675 C   0  0  0  0  0  0
    9.0201    3.9221   15.5464 O   0  0  0  0  0  0
    5.9650   10.9457   22.2805 H   0  0  0  0  0  0
    7.2698    7.5082   22.5055 H   0  0  0  0  0  0
    7.3435    5.3161   25.8797 H   0  0  0  0  0  0
    7.3581    4.5522   24.3552 H   0  0  0  0  0  0
    9.3250    4.3555   14.7340 H   0  0  0  0  0  0
  1  2  1  0  0  0
  1  6  2  0  0  0
  2  3  1  0  0  0
  2 11  1  0  0  0
  3  4  2  0  0  0
  4  5  1  0  0  0
  5  6  1  0  0  0
  5 33  1  0  0  0
  7  8  2  0  0  0
  7 12  1  0  0  0
  8  9  1  0  0  0
  8 13  1  0  0  0
  9 10  2  0  0  0
 10 11  1  0  0  0
 11 12  2  0  0  0
 13 14  1  0  0  0
 13 31  2  0  0  0
 14 15  1  0  0  0
 14 34  1  0  0  0
 15 16  1  0  0  0
 15 17  1  0  0  0
 17 18  1  0  0  0
 17 20  1  0  0  0
 18 19  1  0  0  0
 18 30  2  0  0  0
 19 32  1  0  0  0
 20 26  1  0  0  0
 21 22  2  0  0  0
 21 26  1  0  0  0
 22 23  1  0  0  0
 22 27  1  0  0  0
 23 24  2  0  0  0
 24 25  1  0  0  0
 25 26  2  0  0  0
 27 28  2  0  0  0
 27 29  1  0  0  0
 28 35  1  0  0  0
 29 36  1  0  0  0
 29 37  1  0  0  0
 33 38  1  0  0  0
M  END
>  <CHROM.0>
-67.93848588,117.96762147,34.12778442

>  <CHROM.1>
-92.67499009,-126.95772243,121.73028221,-106.94242791,-173.60923315,147.84948754
-124.00675338,144.85211100,75.22310848,15.33074116,6.18517917,9.09117982
22.10332790,1.13122203,1.02195096,-1.81165431

>  <FORMUL>
      FXV    C25 H27 N4 O4 1+

>  <HET>
 FXV  A 401      33

>  <HETNAM>
     FXV METHYL-3-(4'-N-OXOPYRIDYLPHENOYL)-3-METHYL-2-(M-AMIDINO
   2 FXV BENZYL)-PROPIONATE

>  <HETSYN>
     FXV FXV673

>  <Name>
FXV.pdb

>  <RI>
0

>  <Rbt.Current_Directory>
/home/malgorzata/Desktop/rDOCK_IFD/Wyniki/8a_factor_Xa2

>  <Rbt.Executable>
rbdock ($Id: //depot/dev/client3/rdock/2013.1/src/exe/rbdock.cxx#4 $)

>  <Rbt.Library>
libRbt.so (2013.1, Build901 2013/11/27)

>  <Rbt.Parameter_File>
/home/malgorzata/Desktop/rDock_2013.1_src/data/scripts/soft_docking.prm

>  <Rbt.Receptor>
cavity.prm

>  <SCORE>
-15.1335

>  <SCORE.INTER>
-11.3437

>  <SCORE.INTER.CONST>
1

>  <SCORE.INTER.POLAR>
-0.401802

>  <SCORE.INTER.REPUL>
0

>  <SCORE.INTER.ROT>
9

>  <SCORE.INTER.VDW>
-24.3775

>  <SCORE.INTER.norm>
-0.343747

>  <SCORE.INTRA>
1.97307

>  <SCORE.INTRA.DIHEDRAL>
22.2612

>  <SCORE.INTRA.DIHEDRAL.0>
8.37942

>  <SCORE.INTRA.POLAR>
0

>  <SCORE.INTRA.POLAR.0>
0

>  <SCORE.INTRA.REPUL>
0

>  <SCORE.INTRA.REPUL.0>
0

>  <SCORE.INTRA.VDW>
-2.47917

>  <SCORE.INTRA.VDW.0>
-0.0658046

>  <SCORE.INTRA.norm>
0.05979

>  <SCORE.RESTR>
0.0890643

>  <SCORE.RESTR.CAVITY>
0.0178129

>  <SCORE.RESTR.norm>
0.00269892

>  <SCORE.SYSTEM>
-5.85199

>  <SCORE.SYSTEM.CONST>
0

>  <SCORE.SYSTEM.DIHEDRAL>
1.19956

>  <SCORE.SYSTEM.POLAR>
-1.35366

>  <SCORE.SYSTEM.VDW>
-1.84933

>  <SCORE.SYSTEM.norm>
-0.177333

>  <SCORE.heavy>
33

>  <SCORE.norm>
-0.458591

$$$$
FXV.pdb
  rDOCK(R)          3D
libRbt.so/2013.1/901 2013/11/27
 38 40  0  0  0  0  0  0  0  0999 V2000
    6.5030    8.6143   25.8314 C   0  0  0  0  0  0
    7.7661    8.8234   25.1848 C   0  0  0  0  0  0
    8.7739    9.5691   25.8978 C   0  0  0  0  0  0
    8.5012   10.0790   27.2097 C   0  0  0  0  0  0
    7.2873    9.8733   27.8176 N   0  0  0  0  0  0
    6.3079    9.1534   27.1380 C   0  0  0  0  0  0
    9.3267    6.7431   22.2961 C   0  0  0  0  0  0
    8.5110    7.1614   21.1583 C   0  0  0  0  0  0
    7.4711    8.1323   21.3902 C   0  0  0  0  0  0
    7.2352    8.6746   22.6890 C   0  0  0  0  0  0
    8.0251    8.2702   23.8161 C   0  0  0  0  0  0
    9.0657    7.3038   23.5912 C   0  0  0  0  0  0
    8.6768    6.6407   19.8057 C   0  0  0  0  0  0
    7.5849    6.7509   19.0242 N   0  0  0  0  0  0
    7.5567    6.3365   17.6443 C   0  0  0  0  0  0
    6.5597    7.2532   16.9025 C   0  0  0  0  0  0
    7.1945    4.8051   17.5945 C   0  0  0  0  0  0
    8.0874    4.0969   16.5587 C   0  0  0  0  0  0
    9.4037    4.1828   16.8917 O   0  0  0  0  0  0
    5.6509    4.5188   17.3102 C   0  0  0  0  0  0
    5.7299    1.9306   17.8031 C   0  0  0  0  0  0
    5.1450    0.7309   18.3995 C   0  0  0  0  0  0
    3.8888    0.8562   19.1195 C   0  0  0  0  0  0
    3.2419    2.1272   19.2431 C   0  0  0  0  0  0
    3.8270    3.3025   18.6508 C   0  0  0  0  0  0
    5.0742    3.2338   17.9254 C   0  0  0  0  0  0
    5.7974   -0.5753   18.2804 C   0  0  0  0  0  0
    6.0910   -1.3137   19.3546 N   0  0  0  0  0  0
    6.1038   -1.0457   17.0581 N   0  0  0  0  0  0
    7.6726    3.5596   15.5910 O   0  0  0  0  0  0
    9.7475    6.1527   19.3973 O   0  0  0  0  0  0
   10.3026    3.0804   16.7465 C   0  0  0  0  0  0
    7.0259   10.3578   29.0641 O   0  0  0  0  0  0
    6.7662    7.1334   19.4149 H   0  0  0  0  0  0
    5.8721   -0.9814   20.2551 H   0  0  0  0  0  0
    5.8931   -0.5119   16.2582 H   0  0  0  0  0  0
    6.5388   -1.9238   16.9634 H   0  0  0  0  0  0
    7.8602   10.4924   29.5402 H   0  0  0  0  0  0
  1  2  1  0  0  0
  1  6  2  0  0  0
  2  3  1  0  0  0
  2 11  1  0  0  0
  3  4  2  0  0  0
  4  5  1  0  0  0
  5  6  1  0  0  0
  5 33  1  0  0  0
  7  8  2  0  0  0
  7 12  1  0  0  0
  8  9  1  0  0  0
  8 13  1  0  0  0
  9 10  2  0  0  0
 10 11  1  0  0  0
 11 12  2  0  0  0
 13 14  1  0  0  0
 13 31  2  0  0  0
 14 15  1  0  0  0
 14 34  1  0  0  0
 15 16  1  0  0  0
 15 17  1  0  0  0
 17 18  1  0  0  0
 17 20  1  0  0  0
 18 19  1  0  0  0
 18 30  2  0  0  0
 19 32  1  0  0  0
 20 26  1  0  0  0
 21 22  2  0  0  0
 21 26  1  0  0  0
 22 23  1  0  0  0
 22 27  1  0  0  0
 23 24  2  0  0  0
 24 25  1  0  0  0
 25 26  2  0  0  0
 27 28  2  0  0  0
 27 29  1  0  0  0
 28 35  1  0  0  0
 29 36  1  0  0  0
 29 37  1  0  0  0
 33 38  1  0  0  0
M  END
>  <CHROM.0>
-31.62829187,113.84427114,35.25068247

>  <CHROM.1>
61.23570818,-23.52439555,157.08968765,-149.20100306,-137.50967146,61.74792994
-149.69199384,138.75452519,-48.58548147,125.33823802,7.16135098,5.42141080
20.64319170,1.38306319,0.89571711,1.01499960

>  <FORMUL>
      FXV    C25 H27 N4 O4 1+

>  <HET>
 FXV  A 401      33

>  <HETNAM>
     FXV METHYL-3-(4'-N-OXOPYRIDYLPHENOYL)-3-METHYL-2-(M-AMIDINO
   2 FXV BENZYL)-PROPIONATE

>  <HETSYN>
     FXV FXV673

>  <Name>
FXV.pdb

>  <RI>
0

>  <Rbt.Current_Directory>
/home/malgorzata/Desktop/rDOCK_IFD/Wyniki/8a_factor_Xa2

>  <Rbt.Executable>
rbdock ($Id: //depot/dev/client3/rdock/2013.1/src/exe/rbdock.cxx#4 $)

>  <Rbt.Library>
libRbt.so (2013.1, Build901 2013/11/27)

>  <Rbt.Parameter_File>
/home/malgorzata/Desktop/rDock_2013.1_src/data/scripts/soft_docking.prm

>  <Rbt.Receptor>
cavity.prm

>  <SCORE>
-13.4856

>  <SCORE.INTER>
-12.9612

>  <SCORE.INTER.CONST>
1

>  <SCORE.INTER.POLAR>
-1.01274

>  <SCORE.INTER.REPUL>
0

>  <SCORE.INTER.ROT>
9

>  <SCORE.INTER.VDW>
-23.9179

>  <SCORE.INTER.norm>
-0.392763

>  <SCORE.INTRA>
5.10204

>  <SCORE.INTRA.DIHEDRAL>
23.1687

>  <SCORE.INTRA.DIHEDRAL.0>
8.37942

>  <SCORE.INTRA.POLAR>
0

>  <SCORE.INTRA.POLAR.0>
0

>  <SCORE.INTRA.REPUL>
0

>  <SCORE.INTRA.REPUL.0>
0

>  <SCORE.INTRA.VDW>
0.468304

>  <SCORE.INTRA.VDW.0>
-0.0658046

>  <SCORE.INTRA.norm>
0.154607

>  <SCORE.RESTR>
0

>  <SCORE.RESTR.CAVITY>
0

>  <SCORE.RESTR.norm>
0

>  <SCORE.SYSTEM>
-5.62644

>  <SCORE.SYSTEM.CONST>
0

>  <SCORE.SYSTEM.DIHEDRAL>
1.19929

>  <SCORE.SYSTEM.POLAR>
-1.287

>  <SCORE.SYSTEM.VDW>
-1.85027

>  <SCORE.SYSTEM.norm>
-0.170498

>  <SCORE.heavy>
33

>  <SCORE.norm>
-0.408654

$$$$
FXV.pdb
  rDOCK(R)          3D
libRbt.so/2013.1/901 2013/11/27
 38 40  0  0  0  0  0  0  0  0999 V2000
    8.9719    4.2907   16.2791 C   0  0  0  0  0  0
    8.8922    4.6364   17.6689 C   0  0  0  0  0  0
    9.5582    3.7778   18.6172 C   0  0  0  0  0  0
   10.2703    2.6186   18.1649 C   0  0  0  0  0  0
   10.3383    2.2974   16.8315 N   0  0  0  0  0  0
    9.6995    3.1208   15.9078 C   0  0  0  0  0  0
    7.5585    7.5174   19.9113 C   0  0  0  0  0  0
    6.7288    8.2642   18.9685 C   0  0  0  0  0  0
    6.6335    7.7764   17.6155 C   0  0  0  0  0  0
    7.3262    6.6008   17.1974 C   0  0  0  0  0  0
    8.1478    5.8600   18.1108 C   0  0  0  0  0  0
    8.2453    6.3398   19.4627 C   0  0  0  0  0  0
    6.0056    9.4834   19.3128 C   0  0  0  0  0  0
    6.4574   10.1115   20.4157 N   0  0  0  0  0  0
    5.9076   11.3530   20.8984 C   0  0  0  0  0  0
    6.7506   12.5001   20.3000 C   0  0  0  0  0  0
    5.8916   11.3089   22.4722 C   0  0  0  0  0  0
    5.2047   12.5749   23.0170 C   0  0  0  0  0  0
    4.1115   12.9076   22.2785 O   0  0  0  0  0  0
    7.3349   11.1155   23.1242 C   0  0  0  0  0  0
    8.6564    8.8688   22.7317 C   0  0  0  0  0  0
    8.9903    7.5030   23.1319 C   0  0  0  0  0  0
    8.3663    6.9579   24.3258 C   0  0  0  0  0  0
    7.4477    7.7434   25.0929 C   0  0  0  0  0  0
    7.1255    9.0878   24.6888 C   0  0  0  0  0  0
    7.7179    9.6782   23.5112 C   0  0  0  0  0  0
    9.9291    6.6892   22.3557 C   0  0  0  0  0  0
    9.6303    5.4436   21.9756 N   0  0  0  0  0  0
   11.1201    7.2113   22.0121 N   0  0  0  0  0  0
    5.5936   13.1827   23.9532 O   0  0  0  0  0  0
    5.0599    9.9221   18.6311 O   0  0  0  0  0  0
    3.4682   14.1791   22.3950 C   0  0  0  0  0  0
   11.0139    1.1957   16.3998 O   0  0  0  0  0  0
    7.1997    9.7021   20.9166 H   0  0  0  0  0  0
    8.7620    5.0493   22.2203 H   0  0  0  0  0  0
   11.3531    8.1279   22.2856 H   0  0  0  0  0  0
   11.7589    6.6768   21.4871 H   0  0  0  0  0  0
   10.8293    0.4503   16.9924 H   0  0  0  0  0  0
  1  2  1  0  0  0
  1  6  2  0  0  0
  2  3  1  0  0  0
  2 11  1  0  0  0
  3  4  2  0  0  0
  4  5  1  0  0  0
  5  6  1  0  0  0
  5 33  1  0  0  0
  7  8  2  0  0  0
  7 12  1  0  0  0
  8  9  1  0  0  0
  8 13  1  0  0  0
  9 10  2  0  0  0
 10 11  1  0  0  0
 11 12  2  0  0  0
 13 14  1  0  0  0
 13 31  2  0  0  0
 14 15  1  0  0  0
 14 34  1  0  0  0
 15 16  1  0  0  0
 15 17  1  0  0  0
 17 18  1  0  0  0
 17 20  1  0  0  0
 18 19  1  0  0  0
 18 30  2  0  0  0
 19 32  1  0  0  0
 20 26  1  0  0  0
 21 22  2  0  0  0
 21 26  1  0  0  0
 22 23  1  0  0  0
 22 27  1  0  0  0
 23 24  2  0  0  0
 24 25  1  0  0  0
 25 26  2  0  0  0
 27 28  2  0  0  0
 27 29  1  0  0  0
 28 35  1  0  0  0
 29 36  1  0  0  0
 29 37  1  0  0  0
 33 38  1  0  0  0
M  END
>  <CHROM.0>
2.76786060,14.16853180,58.04025051

>  <CHROM.1>
9.78289055,42.12499129,19.46482067,-93.35660342,-175.46338551,40.69272528
-96.81296116,-166.49788720,104.57122355,-130.16743017,7.68721301,7.98815307
20.53559977,0.88047492,0.91879787,-2.01852187

>  <FORMUL>
      FXV    C25 H27 N4 O4 1+

>  <HET>
 FXV  A 401      33

>  <HETNAM>
     FXV METHYL-3-(4'-N-OXOPYRIDYLPHENOYL)-3-METHYL-2-(M-AMIDINO
   2 FXV BENZYL)-PROPIONATE

>  <HETSYN>
     FXV FXV673

>  <Name>
FXV.pdb

>  <RI>
0

>  <Rbt.Current_Directory>
/home/malgorzata/Desktop/rDOCK_IFD/Wyniki/8a_factor_Xa2

>  <Rbt.Executable>
rbdock ($Id: //depot/dev/client3/rdock/2013.1/src/exe/rbdock.cxx#4 $)

>  <Rbt.Library>
libRbt.so (2013.1, Build901 2013/11/27)

>  <Rbt.Parameter_File>
/home/malgorzata/Desktop/rDock_2013.1_src/data/scripts/soft_docking.prm

>  <Rbt.Receptor>
cavity.prm

>  <SCORE>
-17.5093

>  <SCORE.INTER>
-15.416

>  <SCORE.INTER.CONST>
1

>  <SCORE.INTER.POLAR>
-0.968577

>  <SCORE.INTER.REPUL>
0

>  <SCORE.INTER.ROT>
9

>  <SCORE.INTER.VDW>
-26.5228

>  <SCORE.INTER.norm>
-0.467151

>  <SCORE.INTRA>
0.609208

>  <SCORE.INTRA.DIHEDRAL>
10.8508

>  <SCORE.INTRA.DIHEDRAL.0>
8.37942

>  <SCORE.INTRA.POLAR>
0

>  <SCORE.INTRA.POLAR.0>
0

>  <SCORE.INTRA.REPUL>
0

>  <SCORE.INTRA.REPUL.0>
0

>  <SCORE.INTRA.VDW>
-1.56095

>  <SCORE.INTRA.VDW.0>
-0.0658046

>  <SCORE.INTRA.norm>
0.0184608

>  <SCORE.RESTR>
2.88223

>  <SCORE.RESTR.CAVITY>
0.576447

>  <SCORE.RESTR.norm>
0.0873404

>  <SCORE.SYSTEM>
-5.58473

>  <SCORE.SYSTEM.CONST>
0

>  <SCORE.SYSTEM.DIHEDRAL>
1.20032

>  <SCORE.SYSTEM.POLAR>
-1.33207

>  <SCORE.SYSTEM.VDW>
-1.65586

>  <SCORE.SYSTEM.norm>
-0.169234

>  <SCORE.heavy>
33

>  <SCORE.norm>
-0.530583

$$$$
