FXV.pdb
  rDOCK(R)          3D
libRbt.so/2013.1/901 2013/11/27
 38 40  0  0  0  0  0  0  0  0999 V2000
    3.1274   18.2197   18.1543 C   0  0  0  0  0  0
    2.8957   18.9648   19.3577 C   0  0  0  0  0  0
    3.7270   18.6765   20.5005 C   0  0  0  0  0  0
    4.7458   17.6713   20.4166 C   0  0  0  0  0  0
    4.9570   16.9637   19.2590 N   0  0  0  0  0  0
    4.1604   17.2354   18.1495 C   0  0  0  0  0  0
    0.8437   22.1645   18.5461 C   0  0  0  0  0  0
   -0.2663   22.0494   19.4894 C   0  0  0  0  0  0
   -0.2893   20.9111   20.3733 C   0  0  0  0  0  0
    0.7355   19.9186   20.3360 C   0  0  0  0  0  0
    1.8289   20.0162   19.4124 C   0  0  0  0  0  0
    1.8593   21.1506   18.5294 C   0  0  0  0  0  0
   -1.3606   23.0101   19.5763 C   0  0  0  0  0  0
   -2.5910   22.4689   19.4857 N   0  0  0  0  0  0
   -3.8030   23.2412   19.5919 C   0  0  0  0  0  0
   -4.6538   22.6208   20.7213 C   0  0  0  0  0  0
   -4.5044   23.2584   18.1824 C   0  0  0  0  0  0
   -4.4868   21.8413   17.5798 C   0  0  0  0  0  0
   -3.7022   21.7800   16.4699 O   0  0  0  0  0  0
   -3.8808   24.3196   17.1673 C   0  0  0  0  0  0
   -4.5928   26.3373   18.7068 C   0  0  0  0  0  0
   -4.3921   27.7034   19.1869 C   0  0  0  0  0  0
   -3.2864   28.4742   18.6436 C   0  0  0  0  0  0
   -2.4129   27.9056   17.6623 C   0  0  0  0  0  0
   -2.6205   26.5588   17.1959 C   0  0  0  0  0  0
   -3.7035   25.7490   17.7034 C   0  0  0  0  0  0
   -5.2788   28.2964   20.1910 C   0  0  0  0  0  0
   -4.8051   29.0465   21.1902 N   0  0  0  0  0  0
   -6.6040   28.0849   20.1017 N   0  0  0  0  0  0
   -5.0931   20.9298   18.0255 O   0  0  0  0  0  0
   -1.1752   24.2305   19.7425 O   0  0  0  0  0  0
   -2.9940   20.5946   16.0989 C   0  0  0  0  0  0
    5.9243   16.0074   19.1775 O   0  0  0  0  0  0
   -2.6659   21.4981   19.3398 H   0  0  0  0  0  0
   -3.8373   29.2093   21.2674 H   0  0  0  0  0  0
   -6.9665   27.5342   19.3705 H   0  0  0  0  0  0
   -7.2117   28.4808   20.7675 H   0  0  0  0  0  0
    6.6501   16.3284   18.6197 H   0  0  0  0  0  0
  1  2  1  0  0  0
  1  6  2  0  0  0
  2  3  1  0  0  0
  2 11  1  0  0  0
  3  4  2  0  0  0
  4  5  1  0  0  0
  5  6  1  0  0  0
  5 33  1  0  0  0
  7  8  2  0  0  0
  7 12  1  0  0  0
  8  9  1  0  0  0
  8 13  1  0  0  0
  9 10  2  0  0  0
 10 11  1  0  0  0
 11 12  2  0  0  0
 13 14  1  0  0  0
 13 31  2  0  0  0
 14 15  1  0  0  0
 14 34  1  0  0  0
 15 16  1  0  0  0
 15 17  1  0  0  0
 17 18  1  0  0  0
 17 20  1  0  0  0
 18 19  1  0  0  0
 18 30  2  0  0  0
 19 32  1  0  0  0
 20 26  1  0  0  0
 21 22  2  0  0  0
 21 26  1  0  0  0
 22 23  1  0  0  0
 22 27  1  0  0  0
 23 24  2  0  0  0
 24 25  1  0  0  0
 25 26  2  0  0  0
 27 28  2  0  0  0
 27 29  1  0  0  0
 28 35  1  0  0  0
 29 36  1  0  0  0
 29 37  1  0  0  0
 33 38  1  0  0  0
M  END
>  <CHROM.0>
-126.84958438,4.17863609,-154.58336678,154.21245186,-60.66992230,-10.15794872
102.96475246

>  <CHROM.1>
119.62512326,-108.51726507,126.58659538,-124.34949686,44.57246547,-113.52194468
-49.67043951,148.99480019,-31.00110114,138.65707036,-1.29190663,22.57549188
18.93156021,0.74781690,0.32574933,-2.83301254

>  <FORMUL>
      FXV    C25 H27 N4 O4 1+

>  <HET>
 FXV  A 401      33

>  <HETNAM>
     FXV METHYL-3-(4'-N-OXOPYRIDYLPHENOYL)-3-METHYL-2-(M-AMIDINO
   2 FXV BENZYL)-PROPIONATE

>  <HETSYN>
     FXV FXV673

>  <Name>
FXV.pdb

>  <RI>
0

>  <Rbt.Current_Directory>
/home/malgorzata/Desktop/rDOCK_IFD/test8

>  <Rbt.Executable>
rbdock ($Id: //depot/dev/client3/rdock/2013.1/src/exe/rbdock.cxx#4 $)

>  <Rbt.Library>
libRbt.so (2013.1, Build901 2013/11/27)

>  <Rbt.Parameter_File>
/home/malgorzata/Desktop/rDock_2013.1_src/data/scripts/soft_docking.prm

>  <Rbt.Receptor>
cavity.prm

>  <SCORE>
-26.3145

>  <SCORE.INTER>
-24.6934

>  <SCORE.INTER.CONST>
1

>  <SCORE.INTER.POLAR>
-1.76693

>  <SCORE.INTER.REPUL>
0.193984

>  <SCORE.INTER.ROT>
9

>  <SCORE.INTER.VDW>
-34.0557

>  <SCORE.INTER.norm>
-0.748284

>  <SCORE.INTRA>
1.65399

>  <SCORE.INTRA.DIHEDRAL>
22.9466

>  <SCORE.INTRA.DIHEDRAL.0>
8.37942

>  <SCORE.INTRA.POLAR>
0

>  <SCORE.INTRA.POLAR.0>
0

>  <SCORE.INTRA.REPUL>
0

>  <SCORE.INTRA.REPUL.0>
0

>  <SCORE.INTRA.VDW>
-2.93534

>  <SCORE.INTRA.VDW.0>
-0.0658046

>  <SCORE.INTRA.norm>
0.0501209

>  <SCORE.RESTR>
0.73158

>  <SCORE.RESTR.CAVITY>
0.73158

>  <SCORE.RESTR.norm>
0.0221691

>  <SCORE.SYSTEM>
-4.00671

>  <SCORE.SYSTEM.CONST>
0

>  <SCORE.SYSTEM.DIHEDRAL>
4.18289

>  <SCORE.SYSTEM.POLAR>
-1.29805

>  <SCORE.SYSTEM.REPUL>
0.203726

>  <SCORE.SYSTEM.VDW>
-2.70343

>  <SCORE.SYSTEM.norm>
-0.121415

>  <SCORE.heavy>
33

>  <SCORE.norm>
-0.79741

$$$$
FXV.pdb
  rDOCK(R)          3D
libRbt.so/2013.1/901 2013/11/27
 38 40  0  0  0  0  0  0  0  0999 V2000
    0.1927   26.1479   18.5670 C   0  0  0  0  0  0
   -0.7621   25.2917   17.9247 C   0  0  0  0  0  0
   -1.8831   25.9097   17.2602 C   0  0  0  0  0  0
   -2.0219   27.3367   17.2553 C   0  0  0  0  0  0
   -1.1017   28.1457   17.8751 N   0  0  0  0  0  0
   -0.0150   27.5587   18.5185 C   0  0  0  0  0  0
   -1.4561   21.5029   17.4038 C   0  0  0  0  0  0
   -0.2315   20.9044   17.9303 C   0  0  0  0  0  0
    0.7838   21.7850   18.4512 C   0  0  0  0  0  0
    0.6096   23.2014   18.4562 C   0  0  0  0  0  0
   -0.5854   23.8034   17.9388 C   0  0  0  0  0  0
   -1.6032   22.9305   17.4198 C   0  0  0  0  0  0
    0.0299   19.4693   17.9432 C   0  0  0  0  0  0
   -0.4034   18.8298   19.0470 N   0  0  0  0  0  0
   -0.2807   17.4063   19.2341 C   0  0  0  0  0  0
   -1.6459   16.8817   19.7296 C   0  0  0  0  0  0
    0.9170   17.1378   20.2202 C   0  0  0  0  0  0
    0.7723   18.0340   21.4642 C   0  0  0  0  0  0
    1.3077   17.4465   22.5684 O   0  0  0  0  0  0
    2.3537   17.3171   19.5499 C   0  0  0  0  0  0
    2.9035   14.7391   19.5425 C   0  0  0  0  0  0
    3.8572   13.6415   19.6938 C   0  0  0  0  0  0
    5.2402   13.9622   20.0041 C   0  0  0  0  0  0
    5.6578   15.3231   20.1551 C   0  0  0  0  0  0
    4.7094   16.3966   20.0045 C   0  0  0  0  0  0
    3.3232   16.1334   19.6953 C   0  0  0  0  0  0
    3.4423   12.2449   19.5414 C   0  0  0  0  0  0
    2.3870   11.9035   18.7963 N   0  0  0  0  0  0
    4.1451   11.2810   20.1629 N   0  0  0  0  0  0
    0.2482   19.0934   21.4538 O   0  0  0  0  0  0
    0.5894   18.8770   17.0011 O   0  0  0  0  0  0
    0.5514   17.2313   23.7625 C   0  0  0  0  0  0
   -1.2323   29.5021   17.8722 O   0  0  0  0  0  0
   -0.8246   19.3612   19.7609 H   0  0  0  0  0  0
    1.8639   12.5989   18.3360 H   0  0  0  0  0  0
    4.9248   11.5186   20.7149 H   0  0  0  0  0  0
    3.8797   10.3379   20.0657 H   0  0  0  0  0  0
   -1.0346   29.8440   16.9863 H   0  0  0  0  0  0
  1  2  1  0  0  0
  1  6  2  0  0  0
  2  3  1  0  0  0
  2 11  1  0  0  0
  3  4  2  0  0  0
  4  5  1  0  0  0
  5  6  1  0  0  0
  5 33  1  0  0  0
  7  8  2  0  0  0
  7 12  1  0  0  0
  8  9  1  0  0  0
  8 13  1  0  0  0
  9 10  2  0  0  0
 10 11  1  0  0  0
 11 12  2  0  0  0
 13 14  1  0  0  0
 13 31  2  0  0  0
 14 15  1  0  0  0
 14 34  1  0  0  0
 15 16  1  0  0  0
 15 17  1  0  0  0
 17 18  1  0  0  0
 17 20  1  0  0  0
 18 19  1  0  0  0
 18 30  2  0  0  0
 19 32  1  0  0  0
 20 26  1  0  0  0
 21 22  2  0  0  0
 21 26  1  0  0  0
 22 23  1  0  0  0
 22 27  1  0  0  0
 23 24  2  0  0  0
 24 25  1  0  0  0
 25 26  2  0  0  0
 27 28  2  0  0  0
 27 29  1  0  0  0
 28 35  1  0  0  0
 29 36  1  0  0  0
 29 37  1  0  0  0
 33 38  1  0  0  0
M  END
>  <CHROM.0>
62.91536162,152.82162938,42.78529887,64.96210195,-60.66992230,-132.49717723
-75.88595117

>  <CHROM.1>
-7.16440418,-72.51751731,-89.11211879,-132.91546957,49.27666744,149.90209968
-126.85891600,-124.07324253,41.88353339,25.76246906,0.90744394,19.61063109
19.20212502,-1.89766861,-0.15315970,2.90774628

>  <FORMUL>
      FXV    C25 H27 N4 O4 1+

>  <HET>
 FXV  A 401      33

>  <HETNAM>
     FXV METHYL-3-(4'-N-OXOPYRIDYLPHENOYL)-3-METHYL-2-(M-AMIDINO
   2 FXV BENZYL)-PROPIONATE

>  <HETSYN>
     FXV FXV673

>  <Name>
FXV.pdb

>  <RI>
0

>  <Rbt.Current_Directory>
/home/malgorzata/Desktop/rDOCK_IFD/test8

>  <Rbt.Executable>
rbdock ($Id: //depot/dev/client3/rdock/2013.1/src/exe/rbdock.cxx#4 $)

>  <Rbt.Library>
libRbt.so (2013.1, Build901 2013/11/27)

>  <Rbt.Parameter_File>
/home/malgorzata/Desktop/rDock_2013.1_src/data/scripts/soft_docking.prm

>  <Rbt.Receptor>
cavity.prm

>  <SCORE>
-21.5722

>  <SCORE.INTER>
-20.643

>  <SCORE.INTER.CONST>
1

>  <SCORE.INTER.POLAR>
-1.36479

>  <SCORE.INTER.REPUL>
0.410987

>  <SCORE.INTER.ROT>
9

>  <SCORE.INTER.VDW>
-32.4576

>  <SCORE.INTER.norm>
-0.625545

>  <SCORE.INTRA>
4.39862

>  <SCORE.INTRA.DIHEDRAL>
36.3003

>  <SCORE.INTRA.DIHEDRAL.0>
8.37942

>  <SCORE.INTRA.POLAR>
-0.0724031

>  <SCORE.INTRA.POLAR.0>
0

>  <SCORE.INTRA.REPUL>
0

>  <SCORE.INTRA.REPUL.0>
0

>  <SCORE.INTRA.VDW>
-2.61527

>  <SCORE.INTRA.VDW.0>
-0.0658046

>  <SCORE.INTRA.norm>
0.133292

>  <SCORE.RESTR>
0.5128

>  <SCORE.RESTR.CAVITY>
0.5128

>  <SCORE.RESTR.norm>
0.0155394

>  <SCORE.SYSTEM>
-5.84066

>  <SCORE.SYSTEM.CONST>
0

>  <SCORE.SYSTEM.DIHEDRAL>
4.98372

>  <SCORE.SYSTEM.POLAR>
-1.29805

>  <SCORE.SYSTEM.REPUL>
0.000809833

>  <SCORE.SYSTEM.VDW>
-3.92321

>  <SCORE.SYSTEM.norm>
-0.17699

>  <SCORE.heavy>
33

>  <SCORE.norm>
-0.653704

$$$$
FXV.pdb
  rDOCK(R)          3D
libRbt.so/2013.1/901 2013/11/27
 38 40  0  0  0  0  0  0  0  0999 V2000
   -2.2981   25.7245   16.3760 C   0  0  0  0  0  0
   -2.5672   24.9870   17.5764 C   0  0  0  0  0  0
   -3.0538   25.7161   18.7217 C   0  0  0  0  0  0
   -3.2534   27.1337   18.6431 C   0  0  0  0  0  0
   -2.9909   27.8288   17.4884 N   0  0  0  0  0  0
   -2.5218   27.1337   16.3766 C   0  0  0  0  0  0
   -3.0398   21.2361   18.4789 C   0  0  0  0  0  0
   -1.9766   20.6090   17.6970 C   0  0  0  0  0  0
   -1.1292   21.4601   16.8999 C   0  0  0  0  0  0
   -1.3151   22.8747   16.8665 C   0  0  0  0  0  0
   -2.3574   23.5037   17.6255 C   0  0  0  0  0  0
   -3.2047   22.6607   18.4247 C   0  0  0  0  0  0
   -1.7342   19.1709   17.6630 C   0  0  0  0  0  0
   -2.0650   18.5191   18.7947 N   0  0  0  0  0  0
   -1.9434   17.0914   18.9479 C   0  0  0  0  0  0
   -3.0029   16.6410   19.9769 C   0  0  0  0  0  0
   -0.4586   16.7617   19.3549 C   0  0  0  0  0  0
   -0.1686   17.3318   20.7558 C   0  0  0  0  0  0
    0.8815   16.6988   21.3454 O   0  0  0  0  0  0
    0.6244   17.2649   18.2969 C   0  0  0  0  0  0
    2.8146   16.2884   19.3912 C   0  0  0  0  0  0
    4.1820   16.4660   19.8768 C   0  0  0  0  0  0
    4.7873   17.7836   19.7785 C   0  0  0  0  0  0
    4.0601   18.8808   19.2158 C   0  0  0  0  0  0
    2.7131   18.6944   18.7412 C   0  0  0  0  0  0
    2.0647   17.4058   18.8146 C   0  0  0  0  0  0
    4.9368   15.3511   20.4542 C   0  0  0  0  0  0
    6.0732   14.9135   19.9044 N   0  0  0  0  0  0
    4.4769   14.7564   21.5694 N   0  0  0  0  0  0
   -0.7942   18.2024   21.2537 O   0  0  0  0  0  0
   -1.2784   18.5871   16.6616 O   0  0  0  0  0  0
    1.1281   16.7747   22.7517 C   0  0  0  0  0  0
   -3.1793   29.1762   17.4120 O   0  0  0  0  0  0
   -2.4066   19.0440   19.5545 H   0  0  0  0  0  0
    6.4211   15.3399   19.0880 H   0  0  0  0  0  0
    3.6408   15.0688   21.9849 H   0  0  0  0  0  0
    4.9763   14.0085   21.9703 H   0  0  0  0  0  0
   -2.4826   29.5695   16.8634 H   0  0  0  0  0  0
  1  2  1  0  0  0
  1  6  2  0  0  0
  2  3  1  0  0  0
  2 11  1  0  0  0
  3  4  2  0  0  0
  4  5  1  0  0  0
  5  6  1  0  0  0
  5 33  1  0  0  0
  7  8  2  0  0  0
  7 12  1  0  0  0
  8  9  1  0  0  0
  8 13  1  0  0  0
  9 10  2  0  0  0
 10 11  1  0  0  0
 11 12  2  0  0  0
 13 14  1  0  0  0
 13 31  2  0  0  0
 14 15  1  0  0  0
 14 34  1  0  0  0
 15 16  1  0  0  0
 15 17  1  0  0  0
 17 18  1  0  0  0
 17 20  1  0  0  0
 18 19  1  0  0  0
 18 30  2  0  0  0
 19 32  1  0  0  0
 20 26  1  0  0  0
 21 22  2  0  0  0
 21 26  1  0  0  0
 22 23  1  0  0  0
 22 27  1  0  0  0
 23 24  2  0  0  0
 24 25  1  0  0  0
 25 26  2  0  0  0
 27 28  2  0  0  0
 27 29  1  0  0  0
 28 35  1  0  0  0
 29 36  1  0  0  0
 29 37  1  0  0  0
 33 38  1  0  0  0
M  END
>  <CHROM.0>
-169.88035020,126.13962380,-88.89351952,-160.09926559,-60.66992230,-169.82964903
-147.89562632

>  <CHROM.1>
32.85859543,143.21319305,-30.27685414,-151.97073853,66.28536634,158.30108904
160.42135071,-162.70642925,58.48160775,118.41177026,-0.17453360,20.08569266
18.89709250,-2.08433762,0.04397657,2.88890743

>  <FORMUL>
      FXV    C25 H27 N4 O4 1+

>  <HET>
 FXV  A 401      33

>  <HETNAM>
     FXV METHYL-3-(4'-N-OXOPYRIDYLPHENOYL)-3-METHYL-2-(M-AMIDINO
   2 FXV BENZYL)-PROPIONATE

>  <HETSYN>
     FXV FXV673

>  <Name>
FXV.pdb

>  <RI>
0

>  <Rbt.Current_Directory>
/home/malgorzata/Desktop/rDOCK_IFD/test8

>  <Rbt.Executable>
rbdock ($Id: //depot/dev/client3/rdock/2013.1/src/exe/rbdock.cxx#4 $)

>  <Rbt.Library>
libRbt.so (2013.1, Build901 2013/11/27)

>  <Rbt.Parameter_File>
/home/malgorzata/Desktop/rDock_2013.1_src/data/scripts/soft_docking.prm

>  <Rbt.Receptor>
cavity.prm

>  <SCORE>
-22.5536

>  <SCORE.INTER>
-19.3724

>  <SCORE.INTER.CONST>
1

>  <SCORE.INTER.POLAR>
-0.997761

>  <SCORE.INTER.REPUL>
0.29761

>  <SCORE.INTER.ROT>
9

>  <SCORE.INTER.VDW>
-31.868

>  <SCORE.INTER.norm>
-0.587041

>  <SCORE.INTRA>
1.32476

>  <SCORE.INTRA.DIHEDRAL>
13.6015

>  <SCORE.INTRA.DIHEDRAL.0>
8.37942

>  <SCORE.INTRA.POLAR>
0

>  <SCORE.INTRA.POLAR.0>
0

>  <SCORE.INTRA.REPUL>
0

>  <SCORE.INTRA.REPUL.0>
0

>  <SCORE.INTRA.VDW>
-1.39553

>  <SCORE.INTRA.VDW.0>
-0.0658046

>  <SCORE.INTRA.norm>
0.0401443

>  <SCORE.RESTR>
0.076215

>  <SCORE.RESTR.CAVITY>
0.076215

>  <SCORE.RESTR.norm>
0.00230955

>  <SCORE.SYSTEM>
-4.58219

>  <SCORE.SYSTEM.CONST>
0

>  <SCORE.SYSTEM.DIHEDRAL>
6.3055

>  <SCORE.SYSTEM.POLAR>
-1.29805

>  <SCORE.SYSTEM.VDW>
-3.32159

>  <SCORE.SYSTEM.norm>
-0.138854

>  <SCORE.heavy>
33

>  <SCORE.norm>
-0.683442

$$$$
FXV.pdb
  rDOCK(R)          3D
libRbt.so/2013.1/901 2013/11/27
 38 40  0  0  0  0  0  0  0  0999 V2000
   -0.3674   25.8560   17.7733 C   0  0  0  0  0  0
   -1.4881   25.1853   18.3662 C   0  0  0  0  0  0
   -2.7787   25.8235   18.2811 C   0  0  0  0  0  0
   -2.9157   27.0895   17.6225 C   0  0  0  0  0  0
   -1.8348   27.7223   17.0598 N   0  0  0  0  0  0
   -0.5844   27.1138   17.1356 C   0  0  0  0  0  0
   -1.9291   22.2559   20.8825 C   0  0  0  0  0  0
   -1.0103   21.2590   20.3375 C   0  0  0  0  0  0
   -0.2654   21.6003   19.1517 C   0  0  0  0  0  0
   -0.4141   22.8709   18.5191 C   0  0  0  0  0  0
   -1.3154   23.8578   19.0403 C   0  0  0  0  0  0
   -2.0599   23.5246   20.2244 C   0  0  0  0  0  0
   -0.8165   19.9330   20.9138 C   0  0  0  0  0  0
    0.3572   19.3507   20.5997 N   0  0  0  0  0  0
    0.7585   18.0614   21.1031 C   0  0  0  0  0  0
    2.2068   17.8072   20.6318 C   0  0  0  0  0  0
   -0.2847   16.9904   20.6093 C   0  0  0  0  0  0
   -0.5230   15.9514   21.7207 C   0  0  0  0  0  0
   -1.7592   16.0849   22.2729 O   0  0  0  0  0  0
    0.1229   16.2802   19.2400 C   0  0  0  0  0  0
   -0.9405   14.7834   17.3488 C   0  0  0  0  0  0
   -2.0642   14.4414   16.4785 C   0  0  0  0  0  0
   -3.2856   15.2219   16.5838 C   0  0  0  0  0  0
   -3.3850   16.2991   17.5214 C   0  0  0  0  0  0
   -2.2712   16.6276   18.3735 C   0  0  0  0  0  0
   -1.0348   15.8836   18.3101 C   0  0  0  0  0  0
   -1.9751   13.3412   15.5154 C   0  0  0  0  0  0
   -2.9736   13.0644   14.6717 N   0  0  0  0  0  0
   -0.8575   12.5940   15.4756 N   0  0  0  0  0  0
    0.2792   15.1499   22.0544 O   0  0  0  0  0  0
   -1.6577   19.3898   21.6546 O   0  0  0  0  0  0
   -2.9311   16.2974   21.4818 C   0  0  0  0  0  0
   -1.9628   28.9260   16.4341 O   0  0  0  0  0  0
    0.9707   19.8295   19.9967 H   0  0  0  0  0  0
   -3.7972   13.6034   14.6901 H   0  0  0  0  0  0
   -0.1141   12.7870   16.0917 H   0  0  0  0  0  0
   -0.7827   11.8540   14.8305 H   0  0  0  0  0  0
   -2.4078   29.5524   17.0260 H   0  0  0  0  0  0
  1  2  1  0  0  0
  1  6  2  0  0  0
  2  3  1  0  0  0
  2 11  1  0  0  0
  3  4  2  0  0  0
  4  5  1  0  0  0
  5  6  1  0  0  0
  5 33  1  0  0  0
  7  8  2  0  0  0
  7 12  1  0  0  0
  8  9  1  0  0  0
  8 13  1  0  0  0
  9 10  2  0  0  0
 10 11  1  0  0  0
 11 12  2  0  0  0
 13 14  1  0  0  0
 13 31  2  0  0  0
 14 15  1  0  0  0
 14 34  1  0  0  0
 15 16  1  0  0  0
 15 17  1  0  0  0
 17 18  1  0  0  0
 17 20  1  0  0  0
 18 19  1  0  0  0
 18 30  2  0  0  0
 19 32  1  0  0  0
 20 26  1  0  0  0
 21 22  2  0  0  0
 21 26  1  0  0  0
 22 23  1  0  0  0
 22 27  1  0  0  0
 23 24  2  0  0  0
 24 25  1  0  0  0
 25 26  2  0  0  0
 27 28  2  0  0  0
 27 29  1  0  0  0
 28 35  1  0  0  0
 29 36  1  0  0  0
 29 37  1  0  0  0
 33 38  1  0  0  0
M  END
>  <CHROM.0>
56.36080543,12.78526322,0.96745880,-57.64831348,-60.66992230,69.89607836
7.38624653

>  <CHROM.1>
-37.47437240,52.71493296,-157.48953665,-174.57897691,-142.25437417,108.96679474
-146.70859644,43.60579126,-153.56631283,-176.67722257,-1.26068536,19.56494038
18.91255190,1.62982560,-1.24870875,0.02984198

>  <FORMUL>
      FXV    C25 H27 N4 O4 1+

>  <HET>
 FXV  A 401      33

>  <HETNAM>
     FXV METHYL-3-(4'-N-OXOPYRIDYLPHENOYL)-3-METHYL-2-(M-AMIDINO
   2 FXV BENZYL)-PROPIONATE

>  <HETSYN>
     FXV FXV673

>  <Name>
FXV.pdb

>  <RI>
0

>  <Rbt.Current_Directory>
/home/malgorzata/Desktop/rDOCK_IFD/test8

>  <Rbt.Executable>
rbdock ($Id: //depot/dev/client3/rdock/2013.1/src/exe/rbdock.cxx#4 $)

>  <Rbt.Library>
libRbt.so (2013.1, Build901 2013/11/27)

>  <Rbt.Parameter_File>
/home/malgorzata/Desktop/rDock_2013.1_src/data/scripts/soft_docking.prm

>  <Rbt.Receptor>
cavity.prm

>  <SCORE>
-20.1357

>  <SCORE.INTER>
-23.2348

>  <SCORE.INTER.CONST>
1

>  <SCORE.INTER.POLAR>
-1.90313

>  <SCORE.INTER.REPUL>
0.212174

>  <SCORE.INTER.ROT>
9

>  <SCORE.INTER.VDW>
-32.225

>  <SCORE.INTER.norm>
-0.704085

>  <SCORE.INTRA>
7.23592

>  <SCORE.INTRA.DIHEDRAL>
20.0255

>  <SCORE.INTRA.DIHEDRAL.0>
8.37942

>  <SCORE.INTRA.POLAR>
0

>  <SCORE.INTRA.POLAR.0>
0

>  <SCORE.INTRA.REPUL>
0.0854493

>  <SCORE.INTRA.REPUL.0>
0

>  <SCORE.INTRA.VDW>
2.80358

>  <SCORE.INTRA.VDW.0>
-0.0658046

>  <SCORE.INTRA.norm>
0.21927

>  <SCORE.RESTR>
0

>  <SCORE.RESTR.CAVITY>
0

>  <SCORE.RESTR.norm>
0

>  <SCORE.SYSTEM>
-4.13679

>  <SCORE.SYSTEM.CONST>
0

>  <SCORE.SYSTEM.DIHEDRAL>
5.70713

>  <SCORE.SYSTEM.POLAR>
-1.29805

>  <SCORE.SYSTEM.REPUL>
0.0818325

>  <SCORE.SYSTEM.VDW>
-2.98617

>  <SCORE.SYSTEM.norm>
-0.125357

>  <SCORE.heavy>
33

>  <SCORE.norm>
-0.610172

$$$$
FXV.pdb
  rDOCK(R)          3D
libRbt.so/2013.1/901 2013/11/27
 38 40  0  0  0  0  0  0  0  0999 V2000
   -3.4980   24.3285   18.2323 C   0  0  0  0  0  0
   -2.0769   24.5063   18.1538 C   0  0  0  0  0  0
   -1.5656   25.8547   18.1329 C   0  0  0  0  0  0
   -2.4662   26.9688   18.1874 C   0  0  0  0  0  0
   -3.8251   26.7856   18.2610 N   0  0  0  0  0  0
   -4.3287   25.4875   18.2829 C   0  0  0  0  0  0
    0.9915   22.2065   18.7893 C   0  0  0  0  0  0
    0.6154   21.0033   18.0506 C   0  0  0  0  0  0
   -0.6475   21.0014   17.3557 C   0  0  0  0  0  0
   -1.5138   22.1352   17.3828 C   0  0  0  0  0  0
   -1.1597   23.3217   18.1074 C   0  0  0  0  0  0
    0.0998   23.3311   18.8008 C   0  0  0  0  0  0
    1.4356   19.7984   17.9901 C   0  0  0  0  0  0
    2.1339   19.6517   16.8473 N   0  0  0  0  0  0
    3.0354   18.5532   16.6085 C   0  0  0  0  0  0
    4.4415   19.1466   16.3732 C   0  0  0  0  0  0
    2.4762   17.7062   15.4048 C   0  0  0  0  0  0
    2.3152   18.6101   14.1684 C   0  0  0  0  0  0
    3.1807   18.2613   13.1783 O   0  0  0  0  0  0
    1.1157   16.9409   15.7350 C   0  0  0  0  0  0
    1.8270   16.1580   18.1494 C   0  0  0  0  0  0
    1.5071   15.9248   19.5567 C   0  0  0  0  0  0
    0.1636   16.2259   20.0217 C   0  0  0  0  0  0
   -0.8222   16.7419   19.1210 C   0  0  0  0  0  0
   -0.4961   16.9672   17.7362 C   0  0  0  0  0  0
    0.8242   16.6856   17.2223 C   0  0  0  0  0  0
    2.5070   15.3975   20.4884 C   0  0  0  0  0  0
    2.7221   15.9618   21.6803 N   0  0  0  0  0  0
    3.2231   14.3145   20.1374 N   0  0  0  0  0  0
    1.5421   19.5018   14.1021 O   0  0  0  0  0  0
    1.5032   18.9806   18.9271 O   0  0  0  0  0  0
    3.8400   19.2324   12.3620 C   0  0  0  0  0  0
   -4.6828   27.8433   18.3120 O   0  0  0  0  0  0
    2.0228   20.3282   16.1407 H   0  0  0  0  0  0
    2.2050   16.7550   21.9499 H   0  0  0  0  0  0
    3.0748   13.8888   19.2621 H   0  0  0  0  0  0
    3.8956   13.9473   20.7557 H   0  0  0  0  0  0
   -4.6230   28.2662   19.1829 H   0  0  0  0  0  0
  1  2  1  0  0  0
  1  6  2  0  0  0
  2  3  1  0  0  0
  2 11  1  0  0  0
  3  4  2  0  0  0
  4  5  1  0  0  0
  5  6  1  0  0  0
  5 33  1  0  0  0
  7  8  2  0  0  0
  7 12  1  0  0  0
  8  9  1  0  0  0
  8 13  1  0  0  0
  9 10  2  0  0  0
 10 11  1  0  0  0
 11 12  2  0  0  0
 13 14  1  0  0  0
 13 31  2  0  0  0
 14 15  1  0  0  0
 14 34  1  0  0  0
 15 16  1  0  0  0
 15 17  1  0  0  0
 17 18  1  0  0  0
 17 20  1  0  0  0
 18 19  1  0  0  0
 18 30  2  0  0  0
 19 32  1  0  0  0
 20 26  1  0  0  0
 21 22  2  0  0  0
 21 26  1  0  0  0
 22 23  1  0  0  0
 22 27  1  0  0  0
 23 24  2  0  0  0
 24 25  1  0  0  0
 25 26  2  0  0  0
 27 28  2  0  0  0
 27 29  1  0  0  0
 28 35  1  0  0  0
 29 36  1  0  0  0
 29 37  1  0  0  0
 33 38  1  0  0  0
M  END
>  <CHROM.0>
35.13897380,18.29127180,-67.58632159,58.85663735,-60.66992230,-9.20546807
-93.45588697

>  <CHROM.1>
37.48685879,-72.28962855,-101.71268140,-119.59666310,57.14470401,113.19808296
-22.08658377,-141.18914242,-46.37918107,131.63578668,0.47453976,20.17522033
17.58830658,2.57781609,0.93056894,-0.84406711

>  <FORMUL>
      FXV    C25 H27 N4 O4 1+

>  <HET>
 FXV  A 401      33

>  <HETNAM>
     FXV METHYL-3-(4'-N-OXOPYRIDYLPHENOYL)-3-METHYL-2-(M-AMIDINO
   2 FXV BENZYL)-PROPIONATE

>  <HETSYN>
     FXV FXV673

>  <Name>
FXV.pdb

>  <RI>
0

>  <Rbt.Current_Directory>
/home/malgorzata/Desktop/rDOCK_IFD/test8

>  <Rbt.Executable>
rbdock ($Id: //depot/dev/client3/rdock/2013.1/src/exe/rbdock.cxx#4 $)

>  <Rbt.Library>
libRbt.so (2013.1, Build901 2013/11/27)

>  <Rbt.Parameter_File>
/home/malgorzata/Desktop/rDock_2013.1_src/data/scripts/soft_docking.prm

>  <Rbt.Receptor>
cavity.prm

>  <SCORE>
-27.9781

>  <SCORE.INTER>
-23.8303

>  <SCORE.INTER.CONST>
1

>  <SCORE.INTER.POLAR>
-0.208166

>  <SCORE.INTER.REPUL>
0

>  <SCORE.INTER.ROT>
9

>  <SCORE.INTER.VDW>
-37.5225

>  <SCORE.INTER.norm>
-0.722129

>  <SCORE.INTRA>
2.74281

>  <SCORE.INTRA.DIHEDRAL>
33.9345

>  <SCORE.INTRA.DIHEDRAL.0>
8.37942

>  <SCORE.INTRA.POLAR>
0

>  <SCORE.INTRA.POLAR.0>
0

>  <SCORE.INTRA.REPUL>
0.21921

>  <SCORE.INTRA.REPUL.0>
0

>  <SCORE.INTRA.VDW>
-5.14015

>  <SCORE.INTRA.VDW.0>
-0.0658046

>  <SCORE.INTRA.norm>
0.0831155

>  <SCORE.RESTR>
0

>  <SCORE.RESTR.CAVITY>
0

>  <SCORE.RESTR.norm>
0

>  <SCORE.SYSTEM>
-6.89062

>  <SCORE.SYSTEM.CONST>
0

>  <SCORE.SYSTEM.DIHEDRAL>
1.79848

>  <SCORE.SYSTEM.POLAR>
-1.29805

>  <SCORE.SYSTEM.VDW>
-3.37651

>  <SCORE.SYSTEM.norm>
-0.208807

>  <SCORE.heavy>
33

>  <SCORE.norm>
-0.84782

$$$$
FXV.pdb
  rDOCK(R)          3D
libRbt.so/2013.1/901 2013/11/27
 38 40  0  0  0  0  0  0  0  0999 V2000
    4.1640   19.9802   10.7517 C   0  0  0  0  0  0
    4.1689   19.1670   11.9333 C   0  0  0  0  0  0
    5.4253   18.9742   12.6146 C   0  0  0  0  0  0
    6.6210   19.5828   12.1092 C   0  0  0  0  0  0
    6.6036   20.3581   10.9761 N   0  0  0  0  0  0
    5.3951   20.5514   10.3116 C   0  0  0  0  0  0
    0.9279   17.0274   12.0939 C   0  0  0  0  0  0
    0.4488   17.3198   13.4430 C   0  0  0  0  0  0
    1.2188   18.2298   14.2533 C   0  0  0  0  0  0
    2.4162   18.8322   13.7634 C   0  0  0  0  0  0
    2.9009   18.5512   12.4427 C   0  0  0  0  0  0
    2.1363   17.6461   11.6282 C   0  0  0  0  0  0
   -0.7533   16.7310   14.0228 C   0  0  0  0  0  0
   -1.6805   17.6243   14.4197 N   0  0  0  0  0  0
   -2.9542   17.2454   14.9769 C   0  0  0  0  0  0
   -4.0407   17.5953   13.9369 C   0  0  0  0  0  0
   -3.1232   17.9702   16.3644 C   0  0  0  0  0  0
   -4.3376   17.3843   17.1083 C   0  0  0  0  0  0
   -4.1599   16.0663   17.3951 O   0  0  0  0  0  0
   -3.2331   19.5578   16.2508 C   0  0  0  0  0  0
   -1.2986   19.9099   18.0062 C   0  0  0  0  0  0
   -0.1991   20.7093   18.5441 C   0  0  0  0  0  0
    0.1177   21.9740   17.9022 C   0  0  0  0  0  0
   -0.6294   22.4238   16.7670 C   0  0  0  0  0  0
   -1.7112   21.6283   16.2458 C   0  0  0  0  0  0
   -2.0671   20.3634   16.8455 C   0  0  0  0  0  0
    0.5733   20.2598   19.7049 C   0  0  0  0  0  0
    1.9023   20.3876   19.7558 N   0  0  0  0  0  0
   -0.0726   19.7094   20.7485 N   0  0  0  0  0  0
   -5.3049   18.0069   17.3804 O   0  0  0  0  0  0
   -0.9206   15.5009   14.1240 O   0  0  0  0  0  0
   -2.8635   15.4918   17.5782 C   0  0  0  0  0  0
    7.7391   20.9368   10.4938 O   0  0  0  0  0  0
   -1.4778   18.5830   14.3244 H   0  0  0  0  0  0
    2.3876   20.7887   18.9989 H   0  0  0  0  0  0
   -1.0517   19.6093   20.7242 H   0  0  0  0  0  0
    0.4338   19.4067   21.5367 H   0  0  0  0  0  0
    7.8396   21.8215   10.8784 H   0  0  0  0  0  0
  1  2  1  0  0  0
  1  6  2  0  0  0
  2  3  1  0  0  0
  2 11  1  0  0  0
  3  4  2  0  0  0
  4  5  1  0  0  0
  5  6  1  0  0  0
  5 33  1  0  0  0
  7  8  2  0  0  0
  7 12  1  0  0  0
  8  9  1  0  0  0
  8 13  1  0  0  0
  9 10  2  0  0  0
 10 11  1  0  0  0
 11 12  2  0  0  0
 13 14  1  0  0  0
 13 31  2  0  0  0
 14 15  1  0  0  0
 14 34  1  0  0  0
 15 16  1  0  0  0
 15 17  1  0  0  0
 17 18  1  0  0  0
 17 20  1  0  0  0
 18 19  1  0  0  0
 18 30  2  0  0  0
 19 32  1  0  0  0
 20 26  1  0  0  0
 21 22  2  0  0  0
 21 26  1  0  0  0
 22 23  1  0  0  0
 22 27  1  0  0  0
 23 24  2  0  0  0
 24 25  1  0  0  0
 25 26  2  0  0  0
 27 28  2  0  0  0
 27 29  1  0  0  0
 28 35  1  0  0  0
 29 36  1  0  0  0
 29 37  1  0  0  0
 33 38  1  0  0  0
M  END
>  <CHROM.0>
118.41494273,-40.35816365,-103.11325404,-174.32779544,-60.66992230,-139.94619079
163.25976185

>  <CHROM.1>
-121.26819304,-90.90651691,-121.84225717,-109.83585076,-169.19755267,63.03713304
-113.16176873,27.55912127,-31.78471994,138.12265395,0.37421328,18.86687264
15.02523226,0.43098762,-0.48423041,-2.12731662

>  <FORMUL>
      FXV    C25 H27 N4 O4 1+

>  <HET>
 FXV  A 401      33

>  <HETNAM>
     FXV METHYL-3-(4'-N-OXOPYRIDYLPHENOYL)-3-METHYL-2-(M-AMIDINO
   2 FXV BENZYL)-PROPIONATE

>  <HETSYN>
     FXV FXV673

>  <Name>
FXV.pdb

>  <RI>
0

>  <Rbt.Current_Directory>
/home/malgorzata/Desktop/rDOCK_IFD/test8

>  <Rbt.Executable>
rbdock ($Id: //depot/dev/client3/rdock/2013.1/src/exe/rbdock.cxx#4 $)

>  <Rbt.Library>
libRbt.so (2013.1, Build901 2013/11/27)

>  <Rbt.Parameter_File>
/home/malgorzata/Desktop/rDock_2013.1_src/data/scripts/soft_docking.prm

>  <Rbt.Receptor>
cavity.prm

>  <SCORE>
-25.2759

>  <SCORE.INTER>
-25.5776

>  <SCORE.INTER.CONST>
1

>  <SCORE.INTER.POLAR>
-2.01512

>  <SCORE.INTER.REPUL>
0

>  <SCORE.INTER.ROT>
9

>  <SCORE.INTER.VDW>
-33.1262

>  <SCORE.INTER.norm>
-0.775079

>  <SCORE.INTRA>
5.14272

>  <SCORE.INTRA.DIHEDRAL>
24.2715

>  <SCORE.INTRA.DIHEDRAL.0>
8.37942

>  <SCORE.INTRA.POLAR>
0

>  <SCORE.INTRA.POLAR.0>
0

>  <SCORE.INTRA.REPUL>
0

>  <SCORE.INTRA.REPUL.0>
0

>  <SCORE.INTRA.VDW>
0.288422

>  <SCORE.INTRA.VDW.0>
-0.0658046

>  <SCORE.INTRA.norm>
0.15584

>  <SCORE.RESTR>
0.00101043

>  <SCORE.RESTR.CAVITY>
0.00101043

>  <SCORE.RESTR.norm>
3.06192e-05

>  <SCORE.SYSTEM>
-4.84202

>  <SCORE.SYSTEM.CONST>
0

>  <SCORE.SYSTEM.DIHEDRAL>
5.41494

>  <SCORE.SYSTEM.POLAR>
-1.29805

>  <SCORE.SYSTEM.VDW>
-3.13614

>  <SCORE.SYSTEM.norm>
-0.146728

>  <SCORE.heavy>
33

>  <SCORE.norm>
-0.765936

$$$$
FXV.pdb
  rDOCK(R)          3D
libRbt.so/2013.1/901 2013/11/27
 38 40  0  0  0  0  0  0  0  0999 V2000
   -0.5421   25.9699   17.6835 C   0  0  0  0  0  0
   -1.6694   25.4656   16.9542 C   0  0  0  0  0  0
   -2.6081   26.4203   16.4179 C   0  0  0  0  0  0
   -2.4040   27.8249   16.6204 C   0  0  0  0  0  0
   -1.3213   28.2953   17.3217 N   0  0  0  0  0  0
   -0.4085   27.3816   17.8426 C   0  0  0  0  0  0
   -1.1885   21.8557   15.5960 C   0  0  0  0  0  0
   -2.1759   21.1136   16.3766 C   0  0  0  0  0  0
   -2.9778   21.8443   17.3257 C   0  0  0  0  0  0
   -2.8195   23.2509   17.5072 C   0  0  0  0  0  0
   -1.8513   23.9918   16.7510 C   0  0  0  0  0  0
   -1.0497   23.2694   15.8008 C   0  0  0  0  0  0
   -2.3848   19.6743   16.2633 C   0  0  0  0  0  0
   -1.9739   18.9619   17.3304 N   0  0  0  0  0  0
   -2.1306   17.5331   17.4336 C   0  0  0  0  0  0
   -3.2456   17.2598   18.4664 C   0  0  0  0  0  0
   -0.7338   16.9070   17.8022 C   0  0  0  0  0  0
    0.3516   17.4844   16.8747 C   0  0  0  0  0  0
    1.2247   18.2731   17.5577 O   0  0  0  0  0  0
   -0.7181   15.3118   17.7774 C   0  0  0  0  0  0
   -2.3540   14.6287   15.8268 C   0  0  0  0  0  0
   -2.5967   13.9845   14.5371 C   0  0  0  0  0  0
   -1.4776   13.3590   13.8528 C   0  0  0  0  0  0
   -0.1673   13.3767   14.4291 C   0  0  0  0  0  0
    0.0600   14.0136   15.7008 C   0  0  0  0  0  0
   -1.0168   14.6508   16.4224 C   0  0  0  0  0  0
   -3.9327   13.9600   13.9366 C   0  0  0  0  0  0
   -4.1271   14.2433   12.6454 N   0  0  0  0  0  0
   -4.9899   13.6389   14.7035 N   0  0  0  0  0  0
    0.4037   17.2733   15.7128 O   0  0  0  0  0  0
   -2.9195   19.1464   15.2700 O   0  0  0  0  0  0
    2.0352   19.2563   16.9091 C   0  0  0  0  0  0
   -1.1259   29.6298   17.5158 O   0  0  0  0  0  0
   -1.5455   19.4409   18.0763 H   0  0  0  0  0  0
   -3.3620   14.4799   12.0728 H   0  0  0  0  0  0
   -4.8609   13.4279   15.6564 H   0  0  0  0  0  0
   -5.8929   13.6147   14.3118 H   0  0  0  0  0  0
   -1.2004   29.8333   18.4613 H   0  0  0  0  0  0
  1  2  1  0  0  0
  1  6  2  0  0  0
  2  3  1  0  0  0
  2 11  1  0  0  0
  3  4  2  0  0  0
  4  5  1  0  0  0
  5  6  1  0  0  0
  5 33  1  0  0  0
  7  8  2  0  0  0
  7 12  1  0  0  0
  8  9  1  0  0  0
  8 13  1  0  0  0
  9 10  2  0  0  0
 10 11  1  0  0  0
 11 12  2  0  0  0
 13 14  1  0  0  0
 13 31  2  0  0  0
 14 15  1  0  0  0
 14 34  1  0  0  0
 15 16  1  0  0  0
 15 17  1  0  0  0
 17 18  1  0  0  0
 17 20  1  0  0  0
 18 19  1  0  0  0
 18 30  2  0  0  0
 19 32  1  0  0  0
 20 26  1  0  0  0
 21 22  2  0  0  0
 21 26  1  0  0  0
 22 23  1  0  0  0
 22 27  1  0  0  0
 23 24  2  0  0  0
 24 25  1  0  0  0
 25 26  2  0  0  0
 27 28  2  0  0  0
 27 29  1  0  0  0
 28 35  1  0  0  0
 29 36  1  0  0  0
 29 37  1  0  0  0
 33 38  1  0  0  0
M  END
>  <CHROM.0>
-144.01208787,48.69493481,-125.39777999,-166.04733573,-60.66992230,-57.26099387
42.69075005

>  <CHROM.1>
104.14276393,114.63481941,109.63491473,-107.33682630,-48.12577257,112.34761340
61.99249528,-159.07981896,-72.44823446,134.57212673,-1.59137849,19.69314200
16.35120330,-1.52575341,0.43784469,-3.00630689

>  <FORMUL>
      FXV    C25 H27 N4 O4 1+

>  <HET>
 FXV  A 401      33

>  <HETNAM>
     FXV METHYL-3-(4'-N-OXOPYRIDYLPHENOYL)-3-METHYL-2-(M-AMIDINO
   2 FXV BENZYL)-PROPIONATE

>  <HETSYN>
     FXV FXV673

>  <Name>
FXV.pdb

>  <RI>
0

>  <Rbt.Current_Directory>
/home/malgorzata/Desktop/rDOCK_IFD/test8

>  <Rbt.Executable>
rbdock ($Id: //depot/dev/client3/rdock/2013.1/src/exe/rbdock.cxx#4 $)

>  <Rbt.Library>
libRbt.so (2013.1, Build901 2013/11/27)

>  <Rbt.Parameter_File>
/home/malgorzata/Desktop/rDock_2013.1_src/data/scripts/soft_docking.prm

>  <Rbt.Receptor>
cavity.prm

>  <SCORE>
-23.6351

>  <SCORE.INTER>
-19.8835

>  <SCORE.INTER.CONST>
1

>  <SCORE.INTER.POLAR>
-1.3803

>  <SCORE.INTER.REPUL>
0.0979734

>  <SCORE.INTER.ROT>
9

>  <SCORE.INTER.VDW>
-30.0803

>  <SCORE.INTER.norm>
-0.602529

>  <SCORE.INTRA>
-0.271605

>  <SCORE.INTRA.DIHEDRAL>
22.718

>  <SCORE.INTRA.DIHEDRAL.0>
8.37942

>  <SCORE.INTRA.POLAR>
0

>  <SCORE.INTRA.POLAR.0>
0

>  <SCORE.INTRA.REPUL>
0

>  <SCORE.INTRA.REPUL.0>
0

>  <SCORE.INTRA.VDW>
-4.81521

>  <SCORE.INTRA.VDW.0>
-0.0658046

>  <SCORE.INTRA.norm>
-0.00823047

>  <SCORE.RESTR>
0.146682

>  <SCORE.RESTR.CAVITY>
0.146682

>  <SCORE.RESTR.norm>
0.00444491

>  <SCORE.SYSTEM>
-3.62671

>  <SCORE.SYSTEM.CONST>
0

>  <SCORE.SYSTEM.DIHEDRAL>
8.18801

>  <SCORE.SYSTEM.POLAR>
-1.29805

>  <SCORE.SYSTEM.VDW>
-3.30736

>  <SCORE.SYSTEM.norm>
-0.1099

>  <SCORE.heavy>
33

>  <SCORE.norm>
-0.716215

$$$$
FXV.pdb
  rDOCK(R)          3D
libRbt.so/2013.1/901 2013/11/27
 38 40  0  0  0  0  0  0  0  0999 V2000
   -1.8771   25.8414   16.6218 C   0  0  0  0  0  0
   -2.4599   24.8032   17.4215 C   0  0  0  0  0  0
   -3.3570   25.1913   18.4820 C   0  0  0  0  0  0
   -3.6424   26.5769   18.7148 C   0  0  0  0  0  0
   -3.0770   27.5618   17.9430 N   0  0  0  0  0  0
   -2.2103   27.1973   16.9157 C   0  0  0  0  0  0
   -1.7977   21.0150   17.9861 C   0  0  0  0  0  0
   -1.5811   20.5471   16.6189 C   0  0  0  0  0  0
   -1.6540   21.5138   15.5521 C   0  0  0  0  0  0
   -1.9305   22.8896   15.8117 C   0  0  0  0  0  0
   -2.1495   23.3624   17.1483 C   0  0  0  0  0  0
   -2.0759   22.4038   18.2174 C   0  0  0  0  0  0
   -1.3127   19.1564   16.2698 C   0  0  0  0  0  0
   -0.0410   18.9053   15.9026 N   0  0  0  0  0  0
    0.4373   17.5892   15.5623 C   0  0  0  0  0  0
    1.6635   17.2939   16.4532 C   0  0  0  0  0  0
    0.7320   17.5539   14.0160 C   0  0  0  0  0  0
    0.9144   16.0948   13.5585 C   0  0  0  0  0  0
   -0.0536   15.2864   14.0688 O   0  0  0  0  0  0
    1.9771   18.4506   13.5786 C   0  0  0  0  0  0
    1.1647   18.7846   11.0934 C   0  0  0  0  0  0
    1.4523   18.8812    9.6633 C   0  0  0  0  0  0
    2.8309   18.7498    9.2226 C   0  0  0  0  0  0
    3.8825   18.5334   10.1695 C   0  0  0  0  0  0
    3.5874   18.4392   11.5761 C   0  0  0  0  0  0
    2.2349   18.5635   12.0677 C   0  0  0  0  0  0
    0.3852   19.1028    8.6844 C   0  0  0  0  0  0
    0.4240   18.5531    7.4672 N   0  0  0  0  0  0
   -0.6632   19.8750    9.0216 N   0  0  0  0  0  0
    1.7963   15.7299   12.8612 O   0  0  0  0  0  0
   -2.1825   18.2667   16.3267 O   0  0  0  0  0  0
   -0.5593   14.1551   13.3555 C   0  0  0  0  0  0
   -3.3464   28.8793   18.1631 O   0  0  0  0  0  0
    0.5927   19.6579   15.8650 H   0  0  0  0  0  0
    1.1855   17.9857    7.2075 H   0  0  0  0  0  0
   -0.7045   20.2862    9.9151 H   0  0  0  0  0  0
   -1.3893   20.0290    8.3748 H   0  0  0  0  0  0
   -3.2529   29.0748   19.1086 H   0  0  0  0  0  0
  1  2  1  0  0  0
  1  6  2  0  0  0
  2  3  1  0  0  0
  2 11  1  0  0  0
  3  4  2  0  0  0
  4  5  1  0  0  0
  5  6  1  0  0  0
  5 33  1  0  0  0
  7  8  2  0  0  0
  7 12  1  0  0  0
  8  9  1  0  0  0
  8 13  1  0  0  0
  9 10  2  0  0  0
 10 11  1  0  0  0
 11 12  2  0  0  0
 13 14  1  0  0  0
 13 31  2  0  0  0
 14 15  1  0  0  0
 14 34  1  0  0  0
 15 16  1  0  0  0
 15 17  1  0  0  0
 17 18  1  0  0  0
 17 20  1  0  0  0
 18 19  1  0  0  0
 18 30  2  0  0  0
 19 32  1  0  0  0
 20 26  1  0  0  0
 21 22  2  0  0  0
 21 26  1  0  0  0
 22 23  1  0  0  0
 22 27  1  0  0  0
 23 24  2  0  0  0
 24 25  1  0  0  0
 25 26  2  0  0  0
 27 28  2  0  0  0
 27 29  1  0  0  0
 28 35  1  0  0  0
 29 36  1  0  0  0
 29 37  1  0  0  0
 33 38  1  0  0  0
M  END
>  <CHROM.0>
-56.59626340,150.19642704,-143.00258169,177.06784910,-60.66992230,-91.82435155
-89.29571520

>  <CHROM.1>
-34.36302072,48.10370993,-107.15904677,-125.44489315,-166.42507676,45.76338088
-174.44306802,147.05270991,43.91345826,-145.15302110,-0.39353865,20.43920092
14.43959500,-2.86648312,-1.17932371,2.51896290

>  <FORMUL>
      FXV    C25 H27 N4 O4 1+

>  <HET>
 FXV  A 401      33

>  <HETNAM>
     FXV METHYL-3-(4'-N-OXOPYRIDYLPHENOYL)-3-METHYL-2-(M-AMIDINO
   2 FXV BENZYL)-PROPIONATE

>  <HETSYN>
     FXV FXV673

>  <Name>
FXV.pdb

>  <RI>
0

>  <Rbt.Current_Directory>
/home/malgorzata/Desktop/rDOCK_IFD/test8

>  <Rbt.Executable>
rbdock ($Id: //depot/dev/client3/rdock/2013.1/src/exe/rbdock.cxx#4 $)

>  <Rbt.Library>
libRbt.so (2013.1, Build901 2013/11/27)

>  <Rbt.Parameter_File>
/home/malgorzata/Desktop/rDock_2013.1_src/data/scripts/soft_docking.prm

>  <Rbt.Receptor>
cavity.prm

>  <SCORE>
-40.3981

>  <SCORE.INTER>
-39.5048

>  <SCORE.INTER.CONST>
1

>  <SCORE.INTER.POLAR>
-0.922469

>  <SCORE.INTER.REPUL>
0

>  <SCORE.INTER.ROT>
9

>  <SCORE.INTER.VDW>
-50.7684

>  <SCORE.INTER.norm>
-1.19711

>  <SCORE.INTRA>
2.32757

>  <SCORE.INTRA.DIHEDRAL>
20.9151

>  <SCORE.INTRA.DIHEDRAL.0>
8.37942

>  <SCORE.INTRA.POLAR>
0

>  <SCORE.INTRA.POLAR.0>
0

>  <SCORE.INTRA.REPUL>
0

>  <SCORE.INTRA.REPUL.0>
0

>  <SCORE.INTRA.VDW>
-1.85546

>  <SCORE.INTRA.VDW.0>
-0.0658046

>  <SCORE.INTRA.norm>
0.0705324

>  <SCORE.RESTR>
0.435411

>  <SCORE.RESTR.CAVITY>
0.435411

>  <SCORE.RESTR.norm>
0.0131943

>  <SCORE.SYSTEM>
-3.65627

>  <SCORE.SYSTEM.CONST>
0

>  <SCORE.SYSTEM.DIHEDRAL>
7.25529

>  <SCORE.SYSTEM.POLAR>
-1.29805

>  <SCORE.SYSTEM.VDW>
-2.87057

>  <SCORE.SYSTEM.norm>
-0.110796

>  <SCORE.heavy>
33

>  <SCORE.norm>
-1.22418

$$$$
FXV.pdb
  rDOCK(R)          3D
libRbt.so/2013.1/901 2013/11/27
 38 40  0  0  0  0  0  0  0  0999 V2000
    5.2416   19.7022   12.7607 C   0  0  0  0  0  0
    4.1132   19.3218   11.9611 C   0  0  0  0  0  0
    4.0492   19.8138   10.6068 C   0  0  0  0  0  0
    5.0896   20.6573   10.0956 C   0  0  0  0  0  0
    6.1643   21.0156   10.8716 N   0  0  0  0  0  0
    6.2360   20.5448   12.1802 C   0  0  0  0  0  0
    0.6194   17.7798   12.6844 C   0  0  0  0  0  0
    0.9640   16.6765   13.5782 C   0  0  0  0  0  0
    2.3519   16.4880   13.9185 C   0  0  0  0  0  0
    3.3683   17.3466   13.4022 C   0  0  0  0  0  0
    3.0453   18.4311   12.5204 C   0  0  0  0  0  0
    1.6624   18.6262   12.1788 C   0  0  0  0  0  0
   -0.0127   15.7450   14.1318 C   0  0  0  0  0  0
   -1.2591   16.2426   14.2489 N   0  0  0  0  0  0
   -2.3754   15.4701   14.7323 C   0  0  0  0  0  0
   -3.0510   14.8116   13.5097 C   0  0  0  0  0  0
   -3.3155   16.4232   15.5611 C   0  0  0  0  0  0
   -4.3811   15.5874   16.2942 C   0  0  0  0  0  0
   -4.1505   14.2534   16.1584 O   0  0  0  0  0  0
   -3.9922   17.5753   14.6892 C   0  0  0  0  0  0
   -2.8996   19.9572   14.9738 C   0  0  0  0  0  0
   -2.8973   21.2927   15.5685 C   0  0  0  0  0  0
   -3.9677   21.6452   16.4861 C   0  0  0  0  0  0
   -5.0016   20.7053   16.7972 C   0  0  0  0  0  0
   -4.9934   19.3919   16.2060 C   0  0  0  0  0  0
   -3.9537   18.9906   15.2872 C   0  0  0  0  0  0
   -1.8453   22.2636   15.2578 C   0  0  0  0  0  0
   -2.1131   23.5635   15.1039 N   0  0  0  0  0  0
   -0.5764   21.8363   15.1296 N   0  0  0  0  0  0
   -5.2900   16.0554   16.8875 O   0  0  0  0  0  0
    0.2756   14.5761   14.4511 O   0  0  0  0  0  0
   -5.2105   13.3056   16.0097 C   0  0  0  0  0  0
    7.1539   21.8178   10.3877 O   0  0  0  0  0  0
   -1.4150   17.1801   13.9916 H   0  0  0  0  0  0
   -3.0375   23.8898   15.1951 H   0  0  0  0  0  0
   -0.3650   20.8812   15.2405 H   0  0  0  0  0  0
    0.1411   22.4787   14.9249 H   0  0  0  0  0  0
    7.6111   21.3652    9.6618 H   0  0  0  0  0  0
  1  2  1  0  0  0
  1  6  2  0  0  0
  2  3  1  0  0  0
  2 11  1  0  0  0
  3  4  2  0  0  0
  4  5  1  0  0  0
  5  6  1  0  0  0
  5 33  1  0  0  0
  7  8  2  0  0  0
  7 12  1  0  0  0
  8  9  1  0  0  0
  8 13  1  0  0  0
  9 10  2  0  0  0
 10 11  1  0  0  0
 11 12  2  0  0  0
 13 14  1  0  0  0
 13 31  2  0  0  0
 14 15  1  0  0  0
 14 34  1  0  0  0
 15 16  1  0  0  0
 15 17  1  0  0  0
 17 18  1  0  0  0
 17 20  1  0  0  0
 18 19  1  0  0  0
 18 30  2  0  0  0
 19 32  1  0  0  0
 20 26  1  0  0  0
 21 22  2  0  0  0
 21 26  1  0  0  0
 22 23  1  0  0  0
 22 27  1  0  0  0
 23 24  2  0  0  0
 24 25  1  0  0  0
 25 26  2  0  0  0
 27 28  2  0  0  0
 27 29  1  0  0  0
 28 35  1  0  0  0
 29 36  1  0  0  0
 29 37  1  0  0  0
 33 38  1  0  0  0
M  END
>  <CHROM.0>
178.74535865,18.18040886,-90.10287795,89.94066954,-60.66992230,-21.96518918
104.07679174

>  <CHROM.1>
-37.49617919,-64.25366473,-26.55123320,-90.93355872,-170.18453838,6.65714215
-133.90090601,-142.90019492,93.70045031,141.44949983,-0.34546022,18.38452088
14.08318874,-0.29031398,-0.45154194,-3.09273188

>  <FORMUL>
      FXV    C25 H27 N4 O4 1+

>  <HET>
 FXV  A 401      33

>  <HETNAM>
     FXV METHYL-3-(4'-N-OXOPYRIDYLPHENOYL)-3-METHYL-2-(M-AMIDINO
   2 FXV BENZYL)-PROPIONATE

>  <HETSYN>
     FXV FXV673

>  <Name>
FXV.pdb

>  <RI>
0

>  <Rbt.Current_Directory>
/home/malgorzata/Desktop/rDOCK_IFD/test8

>  <Rbt.Executable>
rbdock ($Id: //depot/dev/client3/rdock/2013.1/src/exe/rbdock.cxx#4 $)

>  <Rbt.Library>
libRbt.so (2013.1, Build901 2013/11/27)

>  <Rbt.Parameter_File>
/home/malgorzata/Desktop/rDock_2013.1_src/data/scripts/soft_docking.prm

>  <Rbt.Receptor>
cavity.prm

>  <SCORE>
-26.4604

>  <SCORE.INTER>
-25.792

>  <SCORE.INTER.CONST>
1

>  <SCORE.INTER.POLAR>
-0.971146

>  <SCORE.INTER.REPUL>
0.473284

>  <SCORE.INTER.ROT>
9

>  <SCORE.INTER.VDW>
-39.2565

>  <SCORE.INTER.norm>
-0.781574

>  <SCORE.INTRA>
4.11342

>  <SCORE.INTRA.DIHEDRAL>
21.987

>  <SCORE.INTRA.DIHEDRAL.0>
8.37942

>  <SCORE.INTRA.POLAR>
0

>  <SCORE.INTRA.POLAR.0>
0

>  <SCORE.INTRA.REPUL>
0

>  <SCORE.INTRA.REPUL.0>
0

>  <SCORE.INTRA.VDW>
-0.28397

>  <SCORE.INTRA.VDW.0>
-0.0658046

>  <SCORE.INTRA.norm>
0.124649

>  <SCORE.RESTR>
0.110835

>  <SCORE.RESTR.CAVITY>
0.110835

>  <SCORE.RESTR.norm>
0.00335863

>  <SCORE.SYSTEM>
-4.89267

>  <SCORE.SYSTEM.CONST>
0

>  <SCORE.SYSTEM.DIHEDRAL>
5.91346

>  <SCORE.SYSTEM.POLAR>
-1.29805

>  <SCORE.SYSTEM.VDW>
-3.43604

>  <SCORE.SYSTEM.norm>
-0.148263

>  <SCORE.heavy>
33

>  <SCORE.norm>
-0.801829

$$$$
FXV.pdb
  rDOCK(R)          3D
libRbt.so/2013.1/901 2013/11/27
 38 40  0  0  0  0  0  0  0  0999 V2000
    5.5111   20.2434   11.7039 C   0  0  0  0  0  0
    5.2473   20.1332   13.1094 C   0  0  0  0  0  0
    6.0888   20.8770   14.0143 C   0  0  0  0  0  0
    7.1517   21.6933   13.5051 C   0  0  0  0  0  0
    7.3950   21.7895   12.1571 N   0  0  0  0  0  0
    6.5874   21.0761   11.2750 C   0  0  0  0  0  0
    1.8865   19.0716   14.7482 C   0  0  0  0  0  0
    1.9119   17.6229   14.5598 C   0  0  0  0  0  0
    3.0555   17.0452   13.8994 C   0  0  0  0  0  0
    4.1361   17.8548   13.4375 C   0  0  0  0  0  0
    4.1229   19.2787   13.6115 C   0  0  0  0  0  0
    2.9862   19.8613   14.2717 C   0  0  0  0  0  0
    0.8397   16.7301   14.9858 C   0  0  0  0  0  0
   -0.0543   17.2874   15.8255 N   0  0  0  0  0  0
   -1.2099   16.5873   16.3264 C   0  0  0  0  0  0
   -2.4113   17.5542   16.2478 C   0  0  0  0  0  0
   -0.8847   16.0691   17.7772 C   0  0  0  0  0  0
   -2.0525   15.2068   18.2912 C   0  0  0  0  0  0
   -1.9489   13.9193   17.8639 O   0  0  0  0  0  0
   -0.5340   17.2324   18.8113 C   0  0  0  0  0  0
    2.0941   17.3131   18.6253 C   0  0  0  0  0  0
    3.3308   18.0586   18.3975 C   0  0  0  0  0  0
    3.2413   19.4821   18.1191 C   0  0  0  0  0  0
    1.9695   20.1371   18.0667 C   0  0  0  0  0  0
    0.7574   19.3928   18.2934 C   0  0  0  0  0  0
    0.7898   17.9761   18.5732 C   0  0  0  0  0  0
    4.6383   17.3998   18.4480 C   0  0  0  0  0  0
    5.1854   17.0136   19.6042 N   0  0  0  0  0  0
    5.3025   17.1730   17.3007 N   0  0  0  0  0  0
   -2.9318   15.6236   18.9622 O   0  0  0  0  0  0
    0.7445   15.5532   14.5893 O   0  0  0  0  0  0
   -1.3932   12.8852   18.6802 C   0  0  0  0  0  0
    8.4052   22.5643   11.6712 O   0  0  0  0  0  0
    0.0889   18.2188   16.1109 H   0  0  0  0  0  0
    4.7100   17.1734   20.4514 H   0  0  0  0  0  0
    4.9110   17.4525   16.4417 H   0  0  0  0  0  0
    6.1803   16.7275   17.3198 H   0  0  0  0  0  0
    9.1531   22.5450   12.2886 H   0  0  0  0  0  0
  1  2  1  0  0  0
  1  6  2  0  0  0
  2  3  1  0  0  0
  2 11  1  0  0  0
  3  4  2  0  0  0
  4  5  1  0  0  0
  5  6  1  0  0  0
  5 33  1  0  0  0
  7  8  2  0  0  0
  7 12  1  0  0  0
  8  9  1  0  0  0
  8 13  1  0  0  0
  9 10  2  0  0  0
 10 11  1  0  0  0
 11 12  2  0  0  0
 13 14  1  0  0  0
 13 31  2  0  0  0
 14 15  1  0  0  0
 14 34  1  0  0  0
 15 16  1  0  0  0
 15 17  1  0  0  0
 17 18  1  0  0  0
 17 20  1  0  0  0
 18 19  1  0  0  0
 18 30  2  0  0  0
 19 32  1  0  0  0
 20 26  1  0  0  0
 21 22  2  0  0  0
 21 26  1  0  0  0
 22 23  1  0  0  0
 22 27  1  0  0  0
 23 24  2  0  0  0
 24 25  1  0  0  0
 25 26  2  0  0  0
 27 28  2  0  0  0
 27 29  1  0  0  0
 28 35  1  0  0  0
 29 36  1  0  0  0
 29 37  1  0  0  0
 33 38  1  0  0  0
M  END
>  <CHROM.0>
-6.44786963,-65.94274826,-107.96534860,-52.86285774,-60.66992230,175.84195100
155.38180981

>  <CHROM.1>
65.19228541,34.46321625,-13.72996150,-136.46661349,-174.89147513,84.41155034
-68.42665163,97.63672606,-62.23700282,-73.27352523,2.39598308,18.06792726
15.94507587,0.61791320,-0.48899069,-1.36652745

>  <FORMUL>
      FXV    C25 H27 N4 O4 1+

>  <HET>
 FXV  A 401      33

>  <HETNAM>
     FXV METHYL-3-(4'-N-OXOPYRIDYLPHENOYL)-3-METHYL-2-(M-AMIDINO
   2 FXV BENZYL)-PROPIONATE

>  <HETSYN>
     FXV FXV673

>  <Name>
FXV.pdb

>  <RI>
0

>  <Rbt.Current_Directory>
/home/malgorzata/Desktop/rDOCK_IFD/test8

>  <Rbt.Executable>
rbdock ($Id: //depot/dev/client3/rdock/2013.1/src/exe/rbdock.cxx#4 $)

>  <Rbt.Library>
libRbt.so (2013.1, Build901 2013/11/27)

>  <Rbt.Parameter_File>
/home/malgorzata/Desktop/rDock_2013.1_src/data/scripts/soft_docking.prm

>  <Rbt.Receptor>
cavity.prm

>  <SCORE>
-28.8298

>  <SCORE.INTER>
-26.4613

>  <SCORE.INTER.CONST>
1

>  <SCORE.INTER.POLAR>
-1.00481

>  <SCORE.INTER.REPUL>
0.0175551

>  <SCORE.INTER.ROT>
9

>  <SCORE.INTER.VDW>
-37.5328

>  <SCORE.INTER.norm>
-0.801858

>  <SCORE.INTRA>
1.67986

>  <SCORE.INTRA.DIHEDRAL>
33.3401

>  <SCORE.INTRA.DIHEDRAL.0>
8.37942

>  <SCORE.INTRA.POLAR>
0

>  <SCORE.INTRA.POLAR.0>
0

>  <SCORE.INTRA.REPUL>
0

>  <SCORE.INTRA.REPUL.0>
0

>  <SCORE.INTRA.VDW>
-4.98816

>  <SCORE.INTRA.VDW.0>
-0.0658046

>  <SCORE.INTRA.norm>
0.0509048

>  <SCORE.RESTR>
0.41563

>  <SCORE.RESTR.CAVITY>
0.41563

>  <SCORE.RESTR.norm>
0.0125948

>  <SCORE.SYSTEM>
-4.464

>  <SCORE.SYSTEM.CONST>
0

>  <SCORE.SYSTEM.DIHEDRAL>
5.50542

>  <SCORE.SYSTEM.POLAR>
-1.29805

>  <SCORE.SYSTEM.VDW>
-2.80335

>  <SCORE.SYSTEM.norm>
-0.135273

>  <SCORE.heavy>
33

>  <SCORE.norm>
-0.873631

$$$$
