RAL.pdb
  rDOCK(R)          3D
libRbt.so/2013.1/901 2013/11/27
 36 40  0  0  0  0  0  0  0  0999 V2000
   33.5470   -0.7539   26.8483 C   0  0  0  0  0  0
   34.7275   -0.5546   27.5166 C   0  0  0  0  0  0
   34.7958   -0.4824   28.8800 C   0  0  0  0  0  0
   36.0424   -0.3098   29.4277 O   0  0  0  0  0  0
   33.6260   -0.6341   29.6332 C   0  0  0  0  0  0
   32.4513   -0.8679   28.9617 C   0  0  0  0  0  0
   30.9178   -1.0381   29.5539 S   0  0  0  0  0  0
   30.1227   -1.2869   28.0858 C   0  0  0  0  0  0
   28.6437   -1.4242   27.9602 C   0  0  0  0  0  0
   28.2145   -2.4404   27.1289 C   0  0  0  0  0  0
   26.8534   -2.6809   27.0335 C   0  0  0  0  0  0
   25.9349   -1.9064   27.7143 C   0  0  0  0  0  0
   24.5851   -2.2269   27.5591 O   0  0  0  0  0  0
   26.3673   -0.9225   28.5791 C   0  0  0  0  0  0
   27.7350   -0.6996   28.6812 C   0  0  0  0  0  0
   32.4069   -0.9215   27.5393 C   0  0  0  0  0  0
   31.0575   -1.1354   27.0400 C   0  0  0  0  0  0
   30.7667   -1.1874   25.6901 C   0  0  0  0  0  0
   29.6667   -0.7849   25.2910 O   0  0  0  0  0  0
   31.7052   -1.7175   24.6950 C   0  0  0  0  0  0
   32.6114   -2.7013   25.0364 C   0  0  0  0  0  0
   33.5182   -3.2113   24.1276 C   0  0  0  0  0  0
   33.5340   -2.6920   22.8343 C   0  0  0  0  0  0
   32.6251   -1.7115   22.4787 C   0  0  0  0  0  0
   31.7087   -1.2375   23.4024 C   0  0  0  0  0  0
   34.3362   -3.0254   21.7832 O   0  0  0  0  0  0
   34.8000   -4.3662   21.7392 C   0  0  0  0  0  0
   35.5588   -4.6161   20.4632 C   0  0  0  0  0  0
   35.1239   -4.4405   19.0908 N   0  0  0  0  0  0
   35.0933   -2.9966   18.7822 C   0  0  0  0  0  0
   34.7911   -2.6830   17.3030 C   0  0  0  0  0  0
   33.3856   -3.2334   17.0119 C   0  0  0  0  0  0
   33.5449   -4.7756   17.1821 C   0  0  0  0  0  0
   33.8398   -5.0342   18.6700 C   0  0  0  0  0  0
   36.1503   -0.3163   30.3585 H   0  0  0  0  0  0
   24.3353   -2.9591   27.0303 H   0  0  0  0  0  0
  1  2  2  0  0  0
  1 16  1  0  0  0
  2  3  1  0  0  0
  3  4  1  0  0  0
  3  5  2  0  0  0
  4 35  1  0  0  0
  5  6  1  0  0  0
  6  7  1  0  0  0
  6 16  2  0  0  0
  7  8  1  0  0  0
  8  9  1  0  0  0
  8 17  2  0  0  0
  9 10  2  0  0  0
  9 15  1  0  0  0
 10 11  1  0  0  0
 11 12  2  0  0  0
 12 13  1  0  0  0
 12 14  1  0  0  0
 13 36  1  0  0  0
 14 15  2  0  0  0
 16 17  1  0  0  0
 17 18  1  0  0  0
 18 19  2  0  0  0
 18 20  1  0  0  0
 20 21  2  0  0  0
 20 25  1  0  0  0
 21 22  1  0  0  0
 22 23  2  0  0  0
 23 24  1  0  0  0
 23 26  1  0  0  0
 24 25  2  0  0  0
 26 27  1  0  0  0
 27 28  1  0  0  0
 28 29  1  0  0  0
 29 30  1  0  0  0
 29 34  1  0  0  0
 30 31  1  0  0  0
 31 32  1  0  0  0
 32 33  1  0  0  0
 33 34  1  0  0  0
M  END
>  <CHROM.0>
112.33758571,-60.06804111,-0.99908751,-89.83798916

>  <CHROM.1>
-175.58491551,-136.02042774,1.82450372,32.37874657,29.57707355,29.92449358
174.60637904,-56.42073840,74.28235302,31.89638869,-2.07144407,24.90490708
-2.05020143,-0.07396371,-1.87637705

>  <FORMUL>
      RAL    C28 H27 N1 O4 S1

>  <HET>
 RAL  A 600      34

>  <HETNAM>
     RAL RALOXIFENE

>  <Name>
RAL.pdb

>  <RI>
0

>  <Rbt.Current_Directory>
/home/malgorzata/Desktop/rDOCK_IFD/Wyniki/6_estrogen_receptor/IFD

>  <Rbt.Executable>
rbdock ($Id: //depot/dev/client3/rdock/2013.1/src/exe/rbdock.cxx#4 $)

>  <Rbt.Library>
libRbt.so (2013.1, Build901 2013/11/27)

>  <Rbt.Parameter_File>
/home/malgorzata/Desktop/rDock_2013.1_src/data/scripts/dock.prm

>  <Rbt.Receptor>
cavity.prm

>  <SCORE>
-21.2975

>  <SCORE.INTER>
-16.0412

>  <SCORE.INTER.CONST>
1

>  <SCORE.INTER.POLAR>
-1.09237

>  <SCORE.INTER.REPUL>
0

>  <SCORE.INTER.ROT>
7

>  <SCORE.INTER.VDW>
-24.7271

>  <SCORE.INTER.norm>
-0.471799

>  <SCORE.INTRA>
-0.983578

>  <SCORE.INTRA.DIHEDRAL>
-3.41347

>  <SCORE.INTRA.DIHEDRAL.0>
18.358

>  <SCORE.INTRA.POLAR>
0

>  <SCORE.INTRA.POLAR.0>
0

>  <SCORE.INTRA.REPUL>
0

>  <SCORE.INTRA.REPUL.0>
0

>  <SCORE.INTRA.VDW>
0.723158

>  <SCORE.INTRA.VDW.0>
-1.94569

>  <SCORE.INTRA.norm>
-0.0289288

>  <SCORE.RESTR>
0

>  <SCORE.RESTR.CAVITY>
0

>  <SCORE.RESTR.norm>
0

>  <SCORE.SYSTEM>
-4.27276

>  <SCORE.SYSTEM.CONST>
0

>  <SCORE.SYSTEM.DIHEDRAL>
1.21174

>  <SCORE.SYSTEM.POLAR>
-1.24254

>  <SCORE.SYSTEM.VDW>
-0.654001

>  <SCORE.SYSTEM.norm>
-0.125669

>  <SCORE.heavy>
34

>  <SCORE.norm>
-0.626397

$$$$
RAL.pdb
  rDOCK(R)          3D
libRbt.so/2013.1/901 2013/11/27
 36 40  0  0  0  0  0  0  0  0999 V2000
   29.4485   -3.1618   26.0762 C   0  0  0  0  0  0
   28.0871   -3.3245   26.0687 C   0  0  0  0  0  0
   27.2616   -2.6398   26.9163 C   0  0  0  0  0  0
   25.9148   -2.8709   26.7875 O   0  0  0  0  0  0
   27.8139   -1.7226   27.8176 C   0  0  0  0  0  0
   29.1743   -1.5373   27.7983 C   0  0  0  0  0  0
   30.1183   -0.5777   28.7571 S   0  0  0  0  0  0
   31.6132   -0.9497   28.0667 C   0  0  0  0  0  0
   32.9129   -0.4341   28.5831 C   0  0  0  0  0  0
   33.9994   -0.6394   27.7552 C   0  0  0  0  0  0
   35.2226   -0.1093   28.1323 C   0  0  0  0  0  0
   35.3761    0.5741   29.3225 C   0  0  0  0  0  0
   36.6458    1.0752   29.6152 O   0  0  0  0  0  0
   34.2811    0.8177   30.1252 C   0  0  0  0  0  0
   33.0549    0.2967   29.7305 C   0  0  0  0  0  0
   30.0121   -2.2769   26.9157 C   0  0  0  0  0  0
   31.4190   -1.9538   27.0948 C   0  0  0  0  0  0
   32.4195   -2.5739   26.3710 C   0  0  0  0  0  0
   33.1126   -3.4424   26.9156 O   0  0  0  0  0  0
   32.7142   -2.2379   24.9737 C   0  0  0  0  0  0
   33.5380   -3.0446   24.2147 C   0  0  0  0  0  0
   33.8473   -2.7489   22.9012 C   0  0  0  0  0  0
   33.3322   -1.5826   22.3383 C   0  0  0  0  0  0
   32.4989   -0.7707   23.0870 C   0  0  0  0  0  0
   32.1834   -1.1054   24.3933 C   0  0  0  0  0  0
   33.5070   -1.0840   21.0813 O   0  0  0  0  0  0
   34.2250   -1.9007   20.1689 C   0  0  0  0  0  0
   34.3736   -1.2005   18.8445 C   0  0  0  0  0  0
   35.0014   -1.6726   17.6253 N   0  0  0  0  0  0
   34.1244   -2.6819   16.9982 C   0  0  0  0  0  0
   34.6098   -3.1528   15.6124 C   0  0  0  0  0  0
   35.9786   -3.8190   15.8257 C   0  0  0  0  0  0
   36.8909   -2.6520   16.3141 C   0  0  0  0  0  0
   36.3689   -2.2236   17.6967 C   0  0  0  0  0  0
   25.3040   -2.3815   27.3027 H   0  0  0  0  0  0
   37.2705    1.1991   28.9278 H   0  0  0  0  0  0
  1  2  2  0  0  0
  1 16  1  0  0  0
  2  3  1  0  0  0
  3  4  1  0  0  0
  3  5  2  0  0  0
  4 35  1  0  0  0
  5  6  1  0  0  0
  6  7  1  0  0  0
  6 16  2  0  0  0
  7  8  1  0  0  0
  8  9  1  0  0  0
  8 17  2  0  0  0
  9 10  2  0  0  0
  9 15  1  0  0  0
 10 11  1  0  0  0
 11 12  2  0  0  0
 12 13  1  0  0  0
 12 14  1  0  0  0
 13 36  1  0  0  0
 14 15  2  0  0  0
 16 17  1  0  0  0
 17 18  1  0  0  0
 18 19  2  0  0  0
 18 20  1  0  0  0
 20 21  2  0  0  0
 20 25  1  0  0  0
 21 22  1  0  0  0
 22 23  2  0  0  0
 23 24  1  0  0  0
 23 26  1  0  0  0
 24 25  2  0  0  0
 26 27  1  0  0  0
 27 28  1  0  0  0
 28 29  1  0  0  0
 29 30  1  0  0  0
 29 34  1  0  0  0
 30 31  1  0  0  0
 31 32  1  0  0  0
 32 33  1  0  0  0
 33 34  1  0  0  0
M  END
>  <CHROM.0>
22.95595169,-60.06804111,59.11556414,-93.34500207

>  <CHROM.1>
-175.65187188,-168.58641266,20.10004053,76.54428222,-167.57707435,5.46905289
-178.19191715,-178.33403429,73.69435913,32.62555595,-1.64927099,24.49916569
1.94420569,0.29972404,1.32762836

>  <FORMUL>
      RAL    C28 H27 N1 O4 S1

>  <HET>
 RAL  A 600      34

>  <HETNAM>
     RAL RALOXIFENE

>  <Name>
RAL.pdb

>  <RI>
0

>  <Rbt.Current_Directory>
/home/malgorzata/Desktop/rDOCK_IFD/Wyniki/6_estrogen_receptor/IFD

>  <Rbt.Executable>
rbdock ($Id: //depot/dev/client3/rdock/2013.1/src/exe/rbdock.cxx#4 $)

>  <Rbt.Library>
libRbt.so (2013.1, Build901 2013/11/27)

>  <Rbt.Parameter_File>
/home/malgorzata/Desktop/rDock_2013.1_src/data/scripts/dock.prm

>  <Rbt.Receptor>
cavity.prm

>  <SCORE>
-22.4281

>  <SCORE.INTER>
-15.2083

>  <SCORE.INTER.CONST>
1

>  <SCORE.INTER.POLAR>
0

>  <SCORE.INTER.REPUL>
0.0418574

>  <SCORE.INTER.ROT>
7

>  <SCORE.INTER.VDW>
-27.8176

>  <SCORE.INTER.norm>
-0.447304

>  <SCORE.INTRA>
-1.90364

>  <SCORE.INTRA.DIHEDRAL>
-5.05854

>  <SCORE.INTRA.DIHEDRAL.0>
18.358

>  <SCORE.INTRA.POLAR>
0

>  <SCORE.INTRA.POLAR.0>
0

>  <SCORE.INTRA.REPUL>
0

>  <SCORE.INTRA.REPUL.0>
0

>  <SCORE.INTRA.VDW>
0.625629

>  <SCORE.INTRA.VDW.0>
-1.94569

>  <SCORE.INTRA.norm>
-0.0559894

>  <SCORE.RESTR>
0

>  <SCORE.RESTR.CAVITY>
0

>  <SCORE.RESTR.norm>
0

>  <SCORE.SYSTEM>
-5.31617

>  <SCORE.SYSTEM.CONST>
0

>  <SCORE.SYSTEM.DIHEDRAL>
1.18399

>  <SCORE.SYSTEM.POLAR>
-1.6337

>  <SCORE.SYSTEM.VDW>
-0.353592

>  <SCORE.SYSTEM.norm>
-0.156358

>  <SCORE.heavy>
34

>  <SCORE.norm>
-0.659651

$$$$
RAL.pdb
  rDOCK(R)          3D
libRbt.so/2013.1/901 2013/11/27
 36 40  0  0  0  0  0  0  0  0999 V2000
   32.4525   -1.1567   28.1315 C   0  0  0  0  0  0
   33.4629   -0.5329   28.8170 C   0  0  0  0  0  0
   33.2342    0.5037   29.6784 C   0  0  0  0  0  0
   34.3281    1.0221   30.3253 O   0  0  0  0  0  0
   31.9217    0.9414   29.8899 C   0  0  0  0  0  0
   30.9095    0.2914   29.2278 C   0  0  0  0  0  0
   29.2858    0.5991   29.2280 S   0  0  0  0  0  0
   28.8099   -0.6369   28.1814 C   0  0  0  0  0  0
   27.4088   -0.8260   27.7092 C   0  0  0  0  0  0
   26.4523   -0.1057   28.3980 C   0  0  0  0  0  0
   25.1402   -0.1662   27.9573 C   0  0  0  0  0  0
   24.7759   -0.9542   26.8833 C   0  0  0  0  0  0
   23.4307   -0.9477   26.5101 O   0  0  0  0  0  0
   25.7390   -1.6359   26.1689 C   0  0  0  0  0  0
   27.0548   -1.5559   26.6080 C   0  0  0  0  0  0
   31.1786   -0.7750   28.3231 C   0  0  0  0  0  0
   29.9669   -1.2870   27.7024 C   0  0  0  0  0  0
   29.9869   -2.3005   26.7632 C   0  0  0  0  0  0
   29.1709   -3.2263   26.8529 O   0  0  0  0  0  0
   30.9512   -2.3408   25.6583 C   0  0  0  0  0  0
   31.3860   -3.5473   25.1476 C   0  0  0  0  0  0
   32.3041   -3.6204   24.1180 C   0  0  0  0  0  0
   32.8268   -2.4359   23.6018 C   0  0  0  0  0  0
   32.3923   -1.2208   24.1004 C   0  0  0  0  0  0
   31.4505   -1.1762   25.1147 C   0  0  0  0  0  0
   33.7417   -2.2615   22.6058 O   0  0  0  0  0  0
   34.1030   -3.4180   21.8664 C   0  0  0  0  0  0
   35.0321   -3.0503   20.7403 C   0  0  0  0  0  0
   34.8129   -2.1383   19.6341 N   0  0  0  0  0  0
   34.8241   -0.7541   20.1490 C   0  0  0  0  0  0
   34.7518    0.3205   19.0455 C   0  0  0  0  0  0
   33.4101    0.1224   18.3218 C   0  0  0  0  0  0
   33.5477   -1.2812   17.6559 C   0  0  0  0  0  0
   33.6112   -2.3135   18.7951 C   0  0  0  0  0  0
   35.1801    0.6677   30.1626 H   0  0  0  0  0  0
   23.1782   -1.2567   25.6623 H   0  0  0  0  0  0
  1  2  2  0  0  0
  1 16  1  0  0  0
  2  3  1  0  0  0
  3  4  1  0  0  0
  3  5  2  0  0  0
  4 35  1  0  0  0
  5  6  1  0  0  0
  6  7  1  0  0  0
  6 16  2  0  0  0
  7  8  1  0  0  0
  8  9  1  0  0  0
  8 17  2  0  0  0
  9 10  2  0  0  0
  9 15  1  0  0  0
 10 11  1  0  0  0
 11 12  2  0  0  0
 12 13  1  0  0  0
 12 14  1  0  0  0
 13 36  1  0  0  0
 14 15  2  0  0  0
 16 17  1  0  0  0
 17 18  1  0  0  0
 18 19  2  0  0  0
 18 20  1  0  0  0
 20 21  2  0  0  0
 20 25  1  0  0  0
 21 22  1  0  0  0
 22 23  2  0  0  0
 23 24  1  0  0  0
 23 26  1  0  0  0
 24 25  2  0  0  0
 26 27  1  0  0  0
 27 28  1  0  0  0
 28 29  1  0  0  0
 29 30  1  0  0  0
 29 34  1  0  0  0
 30 31  1  0  0  0
 31 32  1  0  0  0
 32 33  1  0  0  0
 33 34  1  0  0  0
M  END
>  <CHROM.0>
28.66764715,-60.06804111,55.47375842,-94.47262910

>  <CHROM.1>
0.35508918,-13.38076703,162.39400588,-44.63854115,149.16004900,8.73071744
175.56679500,-59.16511769,71.71063813,30.97494195,-1.16573776,25.35095768
-2.19729321,-0.07825988,-1.77312581

>  <FORMUL>
      RAL    C28 H27 N1 O4 S1

>  <HET>
 RAL  A 600      34

>  <HETNAM>
     RAL RALOXIFENE

>  <Name>
RAL.pdb

>  <RI>
0

>  <Rbt.Current_Directory>
/home/malgorzata/Desktop/rDOCK_IFD/Wyniki/6_estrogen_receptor/IFD

>  <Rbt.Executable>
rbdock ($Id: //depot/dev/client3/rdock/2013.1/src/exe/rbdock.cxx#4 $)

>  <Rbt.Library>
libRbt.so (2013.1, Build901 2013/11/27)

>  <Rbt.Parameter_File>
/home/malgorzata/Desktop/rDock_2013.1_src/data/scripts/dock.prm

>  <Rbt.Receptor>
cavity.prm

>  <SCORE>
-26.7567

>  <SCORE.INTER>
-18.2736

>  <SCORE.INTER.CONST>
1

>  <SCORE.INTER.POLAR>
-0.607604

>  <SCORE.INTER.REPUL>
0

>  <SCORE.INTER.ROT>
7

>  <SCORE.INTER.VDW>
-28.6077

>  <SCORE.INTER.norm>
-0.537458

>  <SCORE.INTRA>
-3.12976

>  <SCORE.INTRA.DIHEDRAL>
-8.20198

>  <SCORE.INTRA.DIHEDRAL.0>
18.358

>  <SCORE.INTRA.POLAR>
0

>  <SCORE.INTRA.POLAR.0>
0

>  <SCORE.INTRA.REPUL>
0

>  <SCORE.INTRA.REPUL.0>
0

>  <SCORE.INTRA.VDW>
0.971226

>  <SCORE.INTRA.VDW.0>
-1.94569

>  <SCORE.INTRA.norm>
-0.0920519

>  <SCORE.RESTR>
0

>  <SCORE.RESTR.CAVITY>
0

>  <SCORE.RESTR.norm>
0

>  <SCORE.SYSTEM>
-5.35341

>  <SCORE.SYSTEM.CONST>
0

>  <SCORE.SYSTEM.DIHEDRAL>
1.17819

>  <SCORE.SYSTEM.POLAR>
-1.57119

>  <SCORE.SYSTEM.VDW>
-0.600461

>  <SCORE.SYSTEM.norm>
-0.157453

>  <SCORE.heavy>
34

>  <SCORE.norm>
-0.786963

$$$$
RAL.pdb
  rDOCK(R)          3D
libRbt.so/2013.1/901 2013/11/27
 36 40  0  0  0  0  0  0  0  0999 V2000
   29.3840   -3.2146   26.0510 C   0  0  0  0  0  0
   28.0235   -3.3693   26.1223 C   0  0  0  0  0  0
   27.2455   -2.6372   26.9752 C   0  0  0  0  0  0
   25.8930   -2.8666   26.9284 O   0  0  0  0  0  0
   27.8469   -1.6783   27.7984 C   0  0  0  0  0  0
   29.2051   -1.5024   27.6991 C   0  0  0  0  0  0
   30.2008   -0.5006   28.5571 S   0  0  0  0  0  0
   31.6565   -0.9163   27.8102 C   0  0  0  0  0  0
   32.9830   -0.3827   28.2314 C   0  0  0  0  0  0
   32.9784    0.3524   29.4009 C   0  0  0  0  0  0
   34.1901    0.8050   29.8975 C   0  0  0  0  0  0
   35.3759    0.5701   29.2299 C   0  0  0  0  0  0
   36.5467    1.0619   29.8097 O   0  0  0  0  0  0
   35.3838   -0.2029   28.0875 C   0  0  0  0  0  0
   34.1657   -0.6668   27.6061 C   0  0  0  0  0  0
   29.9934   -2.2912   26.8134 C   0  0  0  0  0  0
   31.4087   -1.9678   26.9027 C   0  0  0  0  0  0
   32.3682   -2.6300   26.1608 C   0  0  0  0  0  0
   33.1734   -3.3729   26.7362 O   0  0  0  0  0  0
   32.4902   -2.4820   24.7064 C   0  0  0  0  0  0
   33.5443   -3.0582   24.0264 C   0  0  0  0  0  0
   33.6965   -2.9254   22.6598 C   0  0  0  0  0  0
   32.7697   -2.1601   21.9542 C   0  0  0  0  0  0
   31.7047   -1.5847   22.6240 C   0  0  0  0  0  0
   31.5614   -1.7565   23.9907 C   0  0  0  0  0  0
   32.7218   -1.8814   20.6202 O   0  0  0  0  0  0
   33.9119   -1.3760   20.0344 C   0  0  0  0  0  0
   33.8485   -1.4944   18.5350 C   0  0  0  0  0  0
   33.7467   -2.6863   17.7148 N   0  0  0  0  0  0
   34.3181   -2.3983   16.3837 C   0  0  0  0  0  0
   34.4072   -3.6334   15.4648 C   0  0  0  0  0  0
   32.9671   -4.1214   15.2382 C   0  0  0  0  0  0
   32.4984   -4.5749   16.6550 C   0  0  0  0  0  0
   32.4222   -3.3102   17.5281 C   0  0  0  0  0  0
   25.5495   -3.5289   26.3615 H   0  0  0  0  0  0
   36.5054    1.7748   30.4165 H   0  0  0  0  0  0
  1  2  2  0  0  0
  1 16  1  0  0  0
  2  3  1  0  0  0
  3  4  1  0  0  0
  3  5  2  0  0  0
  4 35  1  0  0  0
  5  6  1  0  0  0
  6  7  1  0  0  0
  6 16  2  0  0  0
  7  8  1  0  0  0
  8  9  1  0  0  0
  8 17  2  0  0  0
  9 10  2  0  0  0
  9 15  1  0  0  0
 10 11  1  0  0  0
 11 12  2  0  0  0
 12 13  1  0  0  0
 12 14  1  0  0  0
 13 36  1  0  0  0
 14 15  2  0  0  0
 16 17  1  0  0  0
 17 18  1  0  0  0
 18 19  2  0  0  0
 18 20  1  0  0  0
 20 21  2  0  0  0
 20 25  1  0  0  0
 21 22  1  0  0  0
 22 23  2  0  0  0
 23 24  1  0  0  0
 23 26  1  0  0  0
 24 25  2  0  0  0
 26 27  1  0  0  0
 27 28  1  0  0  0
 28 29  1  0  0  0
 29 30  1  0  0  0
 29 34  1  0  0  0
 30 31  1  0  0  0
 31 32  1  0  0  0
 32 33  1  0  0  0
 33 34  1  0  0  0
M  END
>  <CHROM.0>
93.06690643,-60.06804111,47.49364125,-94.40203503

>  <CHROM.1>
2.95897479,8.20672277,-22.61475832,69.34408984,173.54118193,-51.17624305
163.53760642,-62.36698686,-154.45769869,32.14324098,-1.86632572,24.32699309
1.72948534,0.30581687,1.32278932

>  <FORMUL>
      RAL    C28 H27 N1 O4 S1

>  <HET>
 RAL  A 600      34

>  <HETNAM>
     RAL RALOXIFENE

>  <Name>
RAL.pdb

>  <RI>
0

>  <Rbt.Current_Directory>
/home/malgorzata/Desktop/rDOCK_IFD/Wyniki/6_estrogen_receptor/IFD

>  <Rbt.Executable>
rbdock ($Id: //depot/dev/client3/rdock/2013.1/src/exe/rbdock.cxx#4 $)

>  <Rbt.Library>
libRbt.so (2013.1, Build901 2013/11/27)

>  <Rbt.Parameter_File>
/home/malgorzata/Desktop/rDock_2013.1_src/data/scripts/dock.prm

>  <Rbt.Receptor>
cavity.prm

>  <SCORE>
-23.3125

>  <SCORE.INTER>
-16.7809

>  <SCORE.INTER.CONST>
1

>  <SCORE.INTER.POLAR>
0

>  <SCORE.INTER.REPUL>
0.02863

>  <SCORE.INTER.ROT>
7

>  <SCORE.INTER.VDW>
-29.324

>  <SCORE.INTER.norm>
-0.493555

>  <SCORE.INTRA>
-1.52379

>  <SCORE.INTRA.DIHEDRAL>
-2.14713

>  <SCORE.INTRA.DIHEDRAL.0>
18.358

>  <SCORE.INTRA.POLAR>
0

>  <SCORE.INTRA.POLAR.0>
0

>  <SCORE.INTRA.REPUL>
0

>  <SCORE.INTRA.REPUL.0>
0

>  <SCORE.INTRA.VDW>
-0.450224

>  <SCORE.INTRA.VDW.0>
-1.94569

>  <SCORE.INTRA.norm>
-0.0448173

>  <SCORE.RESTR>
0

>  <SCORE.RESTR.CAVITY>
0

>  <SCORE.RESTR.norm>
0

>  <SCORE.SYSTEM>
-5.00787

>  <SCORE.SYSTEM.CONST>
0

>  <SCORE.SYSTEM.DIHEDRAL>
1.2025

>  <SCORE.SYSTEM.POLAR>
-1.3408

>  <SCORE.SYSTEM.VDW>
-1.05041

>  <SCORE.SYSTEM.norm>
-0.14729

>  <SCORE.heavy>
34

>  <SCORE.norm>
-0.685662

$$$$
RAL.pdb
  rDOCK(R)          3D
libRbt.so/2013.1/901 2013/11/27
 36 40  0  0  0  0  0  0  0  0999 V2000
   33.1637   -1.1476   28.2049 C   0  0  0  0  0  0
   34.2530   -0.6166   28.8463 C   0  0  0  0  0  0
   34.1480    0.4082   29.7449 C   0  0  0  0  0  0
   35.3108    0.8292   30.3404 O   0  0  0  0  0  0
   32.8844    0.9309   30.0428 C   0  0  0  0  0  0
   31.7926    0.3734   29.4242 C   0  0  0  0  0  0
   30.1978    0.7946   29.5258 S   0  0  0  0  0  0
   29.5765   -0.3739   28.4779 C   0  0  0  0  0  0
   28.1412   -0.4500   28.0828 C   0  0  0  0  0  0
   27.4741    0.7591   28.0493 C   0  0  0  0  0  0
   26.1614    0.7734   27.6067 C   0  0  0  0  0  0
   25.5101   -0.3890   27.2436 C   0  0  0  0  0  0
   24.1892   -0.2745   26.8066 O   0  0  0  0  0  0
   26.1917   -1.5882   27.2338 C   0  0  0  0  0  0
   27.5131   -1.5902   27.6634 C   0  0  0  0  0  0
   31.9333   -0.6827   28.4792 C   0  0  0  0  0  0
   30.6551   -1.0898   27.9169 C   0  0  0  0  0  0
   30.5497   -2.0745   26.9531 C   0  0  0  0  0  0
   29.7374   -2.9944   27.1126 O   0  0  0  0  0  0
   31.3753   -2.0912   25.7406 C   0  0  0  0  0  0
   31.8914   -0.9195   25.2246 C   0  0  0  0  0  0
   32.6599   -0.8987   24.0769 C   0  0  0  0  0  0
   32.8941   -2.0978   23.4062 C   0  0  0  0  0  0
   32.3886   -3.2793   23.9185 C   0  0  0  0  0  0
   31.6440   -3.2747   25.0861 C   0  0  0  0  0  0
   33.6036   -2.3197   22.2631 O   0  0  0  0  0  0
   33.5690   -1.2915   21.2851 C   0  0  0  0  0  0
   34.3068   -1.7228   20.0457 C   0  0  0  0  0  0
   34.4114   -1.0530   18.7635 N   0  0  0  0  0  0
   35.1167   -1.9419   17.8183 C   0  0  0  0  0  0
   35.1590   -1.4051   16.3733 C   0  0  0  0  0  0
   35.9425   -0.0831   16.4149 C   0  0  0  0  0  0
   35.0465    0.8559   17.2798 C   0  0  0  0  0  0
   35.0411    0.2807   18.7070 C   0  0  0  0  0  0
   36.1075    0.3566   30.1989 H   0  0  0  0  0  0
   23.7874    0.5698   26.7457 H   0  0  0  0  0  0
  1  2  2  0  0  0
  1 16  1  0  0  0
  2  3  1  0  0  0
  3  4  1  0  0  0
  3  5  2  0  0  0
  4 35  1  0  0  0
  5  6  1  0  0  0
  6  7  1  0  0  0
  6 16  2  0  0  0
  7  8  1  0  0  0
  8  9  1  0  0  0
  8 17  2  0  0  0
  9 10  2  0  0  0
  9 15  1  0  0  0
 10 11  1  0  0  0
 11 12  2  0  0  0
 12 13  1  0  0  0
 12 14  1  0  0  0
 13 36  1  0  0  0
 14 15  2  0  0  0
 16 17  1  0  0  0
 17 18  1  0  0  0
 18 19  2  0  0  0
 18 20  1  0  0  0
 20 21  2  0  0  0
 20 25  1  0  0  0
 21 22  1  0  0  0
 22 23  2  0  0  0
 23 24  1  0  0  0
 23 26  1  0  0  0
 24 25  2  0  0  0
 26 27  1  0  0  0
 27 28  1  0  0  0
 28 29  1  0  0  0
 29 30  1  0  0  0
 29 34  1  0  0  0
 30 31  1  0  0  0
 31 32  1  0  0  0
 32 33  1  0  0  0
 33 34  1  0  0  0
M  END
>  <CHROM.0>
-72.75740519,-60.06804111,55.61809732,163.25831428

>  <CHROM.1>
-6.92274967,30.34005895,1.72181694,-49.57446142,-26.23010449,-33.64149032
-175.69311057,173.26987117,-173.69971192,31.58993489,-0.80642462,25.18471248
-2.08385630,-0.06897831,-1.68297006

>  <FORMUL>
      RAL    C28 H27 N1 O4 S1

>  <HET>
 RAL  A 600      34

>  <HETNAM>
     RAL RALOXIFENE

>  <Name>
RAL.pdb

>  <RI>
0

>  <Rbt.Current_Directory>
/home/malgorzata/Desktop/rDOCK_IFD/Wyniki/6_estrogen_receptor/IFD

>  <Rbt.Executable>
rbdock ($Id: //depot/dev/client3/rdock/2013.1/src/exe/rbdock.cxx#4 $)

>  <Rbt.Library>
libRbt.so (2013.1, Build901 2013/11/27)

>  <Rbt.Parameter_File>
/home/malgorzata/Desktop/rDock_2013.1_src/data/scripts/dock.prm

>  <Rbt.Receptor>
cavity.prm

>  <SCORE>
-25.1839

>  <SCORE.INTER>
-18.6483

>  <SCORE.INTER.CONST>
1

>  <SCORE.INTER.POLAR>
-0.241299

>  <SCORE.INTER.REPUL>
0

>  <SCORE.INTER.ROT>
7

>  <SCORE.INTER.VDW>
-30.2279

>  <SCORE.INTER.norm>
-0.548481

>  <SCORE.INTRA>
-1.34839

>  <SCORE.INTRA.DIHEDRAL>
-3.71894

>  <SCORE.INTRA.DIHEDRAL.0>
18.358

>  <SCORE.INTRA.POLAR>
0

>  <SCORE.INTRA.POLAR.0>
0

>  <SCORE.INTRA.REPUL>
0

>  <SCORE.INTRA.REPUL.0>
0

>  <SCORE.INTRA.VDW>
0.511079

>  <SCORE.INTRA.VDW.0>
-1.94569

>  <SCORE.INTRA.norm>
-0.0396586

>  <SCORE.RESTR>
0

>  <SCORE.RESTR.CAVITY>
0

>  <SCORE.RESTR.norm>
0

>  <SCORE.SYSTEM>
-5.18712

>  <SCORE.SYSTEM.CONST>
0

>  <SCORE.SYSTEM.DIHEDRAL>
1.18432

>  <SCORE.SYSTEM.POLAR>
-1.3408

>  <SCORE.SYSTEM.REPUL>
0.0182057

>  <SCORE.SYSTEM.VDW>
-1.3116

>  <SCORE.SYSTEM.norm>
-0.152562

>  <SCORE.heavy>
34

>  <SCORE.norm>
-0.740702

$$$$
RAL.pdb
  rDOCK(R)          3D
libRbt.so/2013.1/901 2013/11/27
 36 40  0  0  0  0  0  0  0  0999 V2000
   26.2747   -2.2424   26.5098 C   0  0  0  0  0  0
   24.9345   -1.9767   26.6244 C   0  0  0  0  0  0
   24.4602   -0.7740   27.0686 C   0  0  0  0  0  0
   23.0964   -0.6246   27.1090 O   0  0  0  0  0  0
   25.3670    0.2377   27.4047 C   0  0  0  0  0  0
   26.7073   -0.0206   27.2558 C   0  0  0  0  0  0
   28.0079    0.9357   27.6095 S   0  0  0  0  0  0
   29.2247   -0.1328   27.1328 C   0  0  0  0  0  0
   30.6798    0.1451   27.2986 C   0  0  0  0  0  0
   31.4345   -0.9174   27.7563 C   0  0  0  0  0  0
   32.8073   -0.7561   27.8507 C   0  0  0  0  0  0
   33.4155    0.4435   27.5376 C   0  0  0  0  0  0
   34.8046    0.5095   27.6599 O   0  0  0  0  0  0
   32.6661    1.4879   27.0372 C   0  0  0  0  0  0
   31.2921    1.3113   26.9301 C   0  0  0  0  0  0
   27.1738   -1.2890   26.8066 C   0  0  0  0  0  0
   28.6261   -1.3562   26.7647 C   0  0  0  0  0  0
   29.3043   -2.5013   26.3928 C   0  0  0  0  0  0
   28.9408   -3.5947   26.8440 O   0  0  0  0  0  0
   30.4593   -2.4824   25.4885 C   0  0  0  0  0  0
   31.3790   -3.5117   25.5001 C   0  0  0  0  0  0
   32.4850   -3.5173   24.6723 C   0  0  0  0  0  0
   32.6895   -2.4327   23.8211 C   0  0  0  0  0  0
   31.7701   -1.3993   23.7952 C   0  0  0  0  0  0
   30.6556   -1.4324   24.6165 C   0  0  0  0  0  0
   33.7021   -2.2142   22.9344 O   0  0  0  0  0  0
   34.4512   -3.3514   22.5337 C   0  0  0  0  0  0
   33.7091   -4.1201   21.4732 C   0  0  0  0  0  0
   34.1728   -5.2166   20.6448 N   0  0  0  0  0  0
   33.1844   -5.4548   19.5735 C   0  0  0  0  0  0
   33.6351   -6.4994   18.5326 C   0  0  0  0  0  0
   33.8089   -7.8282   19.2856 C   0  0  0  0  0  0
   34.9871   -7.5499   20.2690 C   0  0  0  0  0  0
   34.4861   -6.5089   21.2853 C   0  0  0  0  0  0
   22.7223    0.1985   27.3549 H   0  0  0  0  0  0
   35.2886   -0.2495   27.9203 H   0  0  0  0  0  0
  1  2  2  0  0  0
  1 16  1  0  0  0
  2  3  1  0  0  0
  3  4  1  0  0  0
  3  5  2  0  0  0
  4 35  1  0  0  0
  5  6  1  0  0  0
  6  7  1  0  0  0
  6 16  2  0  0  0
  7  8  1  0  0  0
  8  9  1  0  0  0
  8 17  2  0  0  0
  9 10  2  0  0  0
  9 15  1  0  0  0
 10 11  1  0  0  0
 11 12  2  0  0  0
 12 13  1  0  0  0
 12 14  1  0  0  0
 13 36  1  0  0  0
 14 15  2  0  0  0
 16 17  1  0  0  0
 17 18  1  0  0  0
 18 19  2  0  0  0
 18 20  1  0  0  0
 20 21  2  0  0  0
 20 25  1  0  0  0
 21 22  1  0  0  0
 22 23  2  0  0  0
 23 24  1  0  0  0
 23 26  1  0  0  0
 24 25  2  0  0  0
 26 27  1  0  0  0
 27 28  1  0  0  0
 28 29  1  0  0  0
 29 30  1  0  0  0
 29 34  1  0  0  0
 30 31  1  0  0  0
 31 32  1  0  0  0
 32 33  1  0  0  0
 33 34  1  0  0  0
M  END
>  <CHROM.0>
92.89069099,-60.06804111,51.79813189,161.37284752

>  <CHROM.1>
-176.19438121,137.00902708,1.81831589,136.07590493,157.17290744,19.16804807
80.02804636,169.90274451,-168.55601735,30.68496203,-2.12815418,25.03485958
2.26657713,0.11774905,0.79341884

>  <FORMUL>
      RAL    C28 H27 N1 O4 S1

>  <HET>
 RAL  A 600      34

>  <HETNAM>
     RAL RALOXIFENE

>  <Name>
RAL.pdb

>  <RI>
0

>  <Rbt.Current_Directory>
/home/malgorzata/Desktop/rDOCK_IFD/Wyniki/6_estrogen_receptor/IFD

>  <Rbt.Executable>
rbdock ($Id: //depot/dev/client3/rdock/2013.1/src/exe/rbdock.cxx#4 $)

>  <Rbt.Library>
libRbt.so (2013.1, Build901 2013/11/27)

>  <Rbt.Parameter_File>
/home/malgorzata/Desktop/rDock_2013.1_src/data/scripts/dock.prm

>  <Rbt.Receptor>
cavity.prm

>  <SCORE>
-25.422

>  <SCORE.INTER>
-17.7682

>  <SCORE.INTER.CONST>
1

>  <SCORE.INTER.POLAR>
-0.390661

>  <SCORE.INTER.REPUL>
0

>  <SCORE.INTER.ROT>
7

>  <SCORE.INTER.VDW>
-28.84

>  <SCORE.INTER.norm>
-0.522595

>  <SCORE.INTRA>
-2.13475

>  <SCORE.INTRA.DIHEDRAL>
-2.72112

>  <SCORE.INTRA.DIHEDRAL.0>
18.358

>  <SCORE.INTRA.POLAR>
0

>  <SCORE.INTRA.POLAR.0>
0

>  <SCORE.INTRA.REPUL>
0

>  <SCORE.INTRA.REPUL.0>
0

>  <SCORE.INTRA.VDW>
-0.77419

>  <SCORE.INTRA.VDW.0>
-1.94569

>  <SCORE.INTRA.norm>
-0.0627868

>  <SCORE.RESTR>
0

>  <SCORE.RESTR.CAVITY>
0

>  <SCORE.RESTR.norm>
0

>  <SCORE.SYSTEM>
-5.51901

>  <SCORE.SYSTEM.CONST>
0

>  <SCORE.SYSTEM.DIHEDRAL>
1.2072

>  <SCORE.SYSTEM.POLAR>
-1.3408

>  <SCORE.SYSTEM.VDW>
-1.5639

>  <SCORE.SYSTEM.norm>
-0.162324

>  <SCORE.heavy>
34

>  <SCORE.norm>
-0.747706

$$$$
RAL.pdb
  rDOCK(R)          3D
libRbt.so/2013.1/901 2013/11/27
 36 40  0  0  0  0  0  0  0  0999 V2000
   29.3460   -3.0571   25.9830 C   0  0  0  0  0  0
   27.9907   -3.2578   26.0335 C   0  0  0  0  0  0
   27.1921   -2.6451   26.9585 C   0  0  0  0  0  0
   25.8468   -2.9070   26.8834 O   0  0  0  0  0  0
   27.7659   -1.7641   27.8823 C   0  0  0  0  0  0
   29.1184   -1.5394   27.8064 C   0  0  0  0  0  0
   30.0850   -0.6081   28.7704 S   0  0  0  0  0  0
   31.5518   -0.8984   27.9870 C   0  0  0  0  0  0
   32.8625   -0.3755   28.4670 C   0  0  0  0  0  0
   33.8624   -0.3274   27.5152 C   0  0  0  0  0  0
   35.0809    0.2288   27.8695 C   0  0  0  0  0  0
   35.3180    0.6902   29.1493 C   0  0  0  0  0  0
   36.5752    1.2378   29.4110 O   0  0  0  0  0  0
   34.3042    0.6836   30.0847 C   0  0  0  0  0  0
   33.0803    0.1392   29.7153 C   0  0  0  0  0  0
   29.9288   -2.2046   26.8426 C   0  0  0  0  0  0
   31.3342   -1.8520   26.9702 C   0  0  0  0  0  0
   32.3122   -2.4021   26.1636 C   0  0  0  0  0  0
   33.3338   -2.8694   26.6824 O   0  0  0  0  0  0
   32.2037   -2.4466   24.7013 C   0  0  0  0  0  0
   31.4031   -1.5465   24.0274 C   0  0  0  0  0  0
   31.2674   -1.5705   22.6528 C   0  0  0  0  0  0
   31.9395   -2.5554   21.9310 C   0  0  0  0  0  0
   32.7511   -3.4578   22.5950 C   0  0  0  0  0  0
   32.8903   -3.3938   23.9713 C   0  0  0  0  0  0
   31.9481   -2.7813   20.5862 O   0  0  0  0  0  0
   31.3421   -1.7888   19.7722 C   0  0  0  0  0  0
   32.2541   -0.5994   19.6306 C   0  0  0  0  0  0
   33.5965   -0.5355   19.0853 N   0  0  0  0  0  0
   34.5568   -0.9246   20.1378 C   0  0  0  0  0  0
   36.0112   -1.0431   19.6396 C   0  0  0  0  0  0
   36.4261    0.3531   19.1483 C   0  0  0  0  0  0
   35.4906    0.6138   17.9278 C   0  0  0  0  0  0
   34.0580    0.7279   18.4776 C   0  0  0  0  0  0
   25.5272   -3.5477   26.2790 H   0  0  0  0  0  0
   37.1959    1.3392   28.7164 H   0  0  0  0  0  0
  1  2  2  0  0  0
  1 16  1  0  0  0
  2  3  1  0  0  0
  3  4  1  0  0  0
  3  5  2  0  0  0
  4 35  1  0  0  0
  5  6  1  0  0  0
  6  7  1  0  0  0
  6 16  2  0  0  0
  7  8  1  0  0  0
  8  9  1  0  0  0
  8 17  2  0  0  0
  9 10  2  0  0  0
  9 15  1  0  0  0
 10 11  1  0  0  0
 11 12  2  0  0  0
 12 13  1  0  0  0
 12 14  1  0  0  0
 13 36  1  0  0  0
 14 15  2  0  0  0
 16 17  1  0  0  0
 17 18  1  0  0  0
 18 19  2  0  0  0
 18 20  1  0  0  0
 20 21  2  0  0  0
 20 25  1  0  0  0
 21 22  1  0  0  0
 22 23  2  0  0  0
 23 24  1  0  0  0
 23 26  1  0  0  0
 24 25  2  0  0  0
 26 27  1  0  0  0
 27 28  1  0  0  0
 28 29  1  0  0  0
 29 30  1  0  0  0
 29 34  1  0  0  0
 30 31  1  0  0  0
 31 32  1  0  0  0
 32 33  1  0  0  0
 33 34  1  0  0  0
M  END
>  <CHROM.0>
25.66368827,-60.06804111,51.32552457,160.84946702

>  <CHROM.1>
6.26733698,-159.75923791,4.51891311,49.74475123,23.90754719,9.34041751,76.91846162
59.60611438,-83.38811088,32.16258225,-1.27563033,24.81570371,1.95679793,0.39880777
1.45965229

>  <FORMUL>
      RAL    C28 H27 N1 O4 S1

>  <HET>
 RAL  A 600      34

>  <HETNAM>
     RAL RALOXIFENE

>  <Name>
RAL.pdb

>  <RI>
0

>  <Rbt.Current_Directory>
/home/malgorzata/Desktop/rDOCK_IFD/Wyniki/6_estrogen_receptor/IFD

>  <Rbt.Executable>
rbdock ($Id: //depot/dev/client3/rdock/2013.1/src/exe/rbdock.cxx#4 $)

>  <Rbt.Library>
libRbt.so (2013.1, Build901 2013/11/27)

>  <Rbt.Parameter_File>
/home/malgorzata/Desktop/rDock_2013.1_src/data/scripts/dock.prm

>  <Rbt.Receptor>
cavity.prm

>  <SCORE>
-23.4881

>  <SCORE.INTER>
-15.6026

>  <SCORE.INTER.CONST>
1

>  <SCORE.INTER.POLAR>
0

>  <SCORE.INTER.REPUL>
0

>  <SCORE.INTER.ROT>
7

>  <SCORE.INTER.VDW>
-28.0026

>  <SCORE.INTER.norm>
-0.458899

>  <SCORE.INTRA>
-2.02788

>  <SCORE.INTRA.DIHEDRAL>
-4.98773

>  <SCORE.INTRA.DIHEDRAL.0>
18.358

>  <SCORE.INTRA.POLAR>
0

>  <SCORE.INTRA.POLAR.0>
0

>  <SCORE.INTRA.REPUL>
0

>  <SCORE.INTRA.REPUL.0>
0

>  <SCORE.INTRA.VDW>
0.465991

>  <SCORE.INTRA.VDW.0>
-1.94569

>  <SCORE.INTRA.norm>
-0.0596434

>  <SCORE.RESTR>
0

>  <SCORE.RESTR.CAVITY>
0

>  <SCORE.RESTR.norm>
0

>  <SCORE.SYSTEM>
-5.85763

>  <SCORE.SYSTEM.CONST>
0

>  <SCORE.SYSTEM.DIHEDRAL>
1.174

>  <SCORE.SYSTEM.POLAR>
-1.60427

>  <SCORE.SYSTEM.VDW>
-0.990112

>  <SCORE.SYSTEM.norm>
-0.172283

>  <SCORE.heavy>
34

>  <SCORE.norm>
-0.690826

$$$$
RAL.pdb
  rDOCK(R)          3D
libRbt.so/2013.1/901 2013/11/27
 36 40  0  0  0  0  0  0  0  0999 V2000
   26.2304   -2.1814   26.3454 C   0  0  0  0  0  0
   24.9000   -1.8600   26.2634 C   0  0  0  0  0  0
   24.3766   -0.7454   26.8571 C   0  0  0  0  0  0
   23.0348   -0.5209   26.6748 O   0  0  0  0  0  0
   25.2239    0.1167   27.5625 C   0  0  0  0  0  0
   26.5612   -0.1906   27.6130 C   0  0  0  0  0  0
   27.7900    0.5887   28.3965 S   0  0  0  0  0  0
   29.0512   -0.4353   27.9377 C   0  0  0  0  0  0
   30.4522   -0.2902   28.4254 C   0  0  0  0  0  0
   30.7334    0.9014   29.0650 C   0  0  0  0  0  0
   31.9917    1.0684   29.6203 C   0  0  0  0  0  0
   32.9637    0.0936   29.5099 C   0  0  0  0  0  0
   34.2000    0.3503   30.1051 O   0  0  0  0  0  0
   32.6666   -1.1132   28.9115 C   0  0  0  0  0  0
   31.3966   -1.2780   28.3721 C   0  0  0  0  0  0
   27.0765   -1.3678   26.9992 C   0  0  0  0  0  0
   28.5073   -1.5173   27.2138 C   0  0  0  0  0  0
   29.2181   -2.6033   26.7395 C   0  0  0  0  0  0
   28.8851   -3.7437   27.0855 O   0  0  0  0  0  0
   30.3732   -2.4678   25.8454 C   0  0  0  0  0  0
   30.7010   -1.2428   25.3001 C   0  0  0  0  0  0
   31.7729   -1.0839   24.4433 C   0  0  0  0  0  0
   32.5263   -2.2047   24.0986 C   0  0  0  0  0  0
   32.2119   -3.4360   24.6453 C   0  0  0  0  0  0
   31.1482   -3.5617   25.5232 C   0  0  0  0  0  0
   33.6077   -2.2935   23.2727 O   0  0  0  0  0  0
   33.4826   -1.6860   21.9959 C   0  0  0  0  0  0
   34.7086   -1.9564   21.1651 C   0  0  0  0  0  0
   35.1027   -1.3709   19.8981 N   0  0  0  0  0  0
   36.4182   -1.9181   19.5095 C   0  0  0  0  0  0
   36.8801   -1.4872   18.1027 C   0  0  0  0  0  0
   37.0224    0.0431   18.1329 C   0  0  0  0  0  0
   35.5661    0.5500   18.3670 C   0  0  0  0  0  0
   35.1564    0.0994   19.7801 C   0  0  0  0  0  0
   22.5796   -0.9454   25.9744 H   0  0  0  0  0  0
   34.9108   -0.2486   29.9859 H   0  0  0  0  0  0
  1  2  2  0  0  0
  1 16  1  0  0  0
  2  3  1  0  0  0
  3  4  1  0  0  0
  3  5  2  0  0  0
  4 35  1  0  0  0
  5  6  1  0  0  0
  6  7  1  0  0  0
  6 16  2  0  0  0
  7  8  1  0  0  0
  8  9  1  0  0  0
  8 17  2  0  0  0
  9 10  2  0  0  0
  9 15  1  0  0  0
 10 11  1  0  0  0
 11 12  2  0  0  0
 12 13  1  0  0  0
 12 14  1  0  0  0
 13 36  1  0  0  0
 14 15  2  0  0  0
 16 17  1  0  0  0
 17 18  1  0  0  0
 18 19  2  0  0  0
 18 20  1  0  0  0
 20 21  2  0  0  0
 20 25  1  0  0  0
 21 22  1  0  0  0
 22 23  2  0  0  0
 23 24  1  0  0  0
 23 26  1  0  0  0
 24 25  2  0  0  0
 26 27  1  0  0  0
 27 28  1  0  0  0
 28 29  1  0  0  0
 29 30  1  0  0  0
 29 34  1  0  0  0
 30 31  1  0  0  0
 31 32  1  0  0  0
 32 33  1  0  0  0
 33 34  1  0  0  0
M  END
>  <CHROM.0>
-73.68197241,-60.06804111,60.61149285,-93.96777653

>  <CHROM.1>
-18.58694804,-12.94004748,-174.33066154,122.61976321,-8.22919183,-49.43201839
-175.69051722,-169.48139326,177.59310250,30.89513484,-1.07445125,25.32634423
2.39535473,0.09583520,1.41796266

>  <FORMUL>
      RAL    C28 H27 N1 O4 S1

>  <HET>
 RAL  A 600      34

>  <HETNAM>
     RAL RALOXIFENE

>  <Name>
RAL.pdb

>  <RI>
0

>  <Rbt.Current_Directory>
/home/malgorzata/Desktop/rDOCK_IFD/Wyniki/6_estrogen_receptor/IFD

>  <Rbt.Executable>
rbdock ($Id: //depot/dev/client3/rdock/2013.1/src/exe/rbdock.cxx#4 $)

>  <Rbt.Library>
libRbt.so (2013.1, Build901 2013/11/27)

>  <Rbt.Parameter_File>
/home/malgorzata/Desktop/rDock_2013.1_src/data/scripts/dock.prm

>  <Rbt.Receptor>
cavity.prm

>  <SCORE>
-29.6167

>  <SCORE.INTER>
-21.9145

>  <SCORE.INTER.CONST>
1

>  <SCORE.INTER.POLAR>
-1.1294

>  <SCORE.INTER.REPUL>
0

>  <SCORE.INTER.ROT>
7

>  <SCORE.INTER.VDW>
-30.4746

>  <SCORE.INTER.norm>
-0.644545

>  <SCORE.INTRA>
-3.03275

>  <SCORE.INTRA.DIHEDRAL>
-5.60202

>  <SCORE.INTRA.DIHEDRAL.0>
18.358

>  <SCORE.INTRA.POLAR>
0

>  <SCORE.INTRA.POLAR.0>
0

>  <SCORE.INTRA.REPUL>
0

>  <SCORE.INTRA.REPUL.0>
0

>  <SCORE.INTRA.VDW>
-0.23174

>  <SCORE.INTRA.VDW.0>
-1.94569

>  <SCORE.INTRA.norm>
-0.0891985

>  <SCORE.RESTR>
0

>  <SCORE.RESTR.CAVITY>
0

>  <SCORE.RESTR.norm>
0

>  <SCORE.SYSTEM>
-4.66941

>  <SCORE.SYSTEM.CONST>
0

>  <SCORE.SYSTEM.DIHEDRAL>
1.18972

>  <SCORE.SYSTEM.POLAR>
-1.3408

>  <SCORE.SYSTEM.REPUL>
0.0234137

>  <SCORE.SYSTEM.VDW>
-0.822633

>  <SCORE.SYSTEM.norm>
-0.137336

>  <SCORE.heavy>
34

>  <SCORE.norm>
-0.871079

$$$$
RAL.pdb
  rDOCK(R)          3D
libRbt.so/2013.1/901 2013/11/27
 36 40  0  0  0  0  0  0  0  0999 V2000
   37.0964   -2.7918   20.8851 C   0  0  0  0  0  0
   38.3699   -2.5123   20.4608 C   0  0  0  0  0  0
   38.6311   -1.6100   19.4677 C   0  0  0  0  0  0
   39.9511   -1.3988   19.1565 O   0  0  0  0  0  0
   37.5680   -0.9265   18.8665 C   0  0  0  0  0  0
   36.2970   -1.1839   19.3180 C   0  0  0  0  0  0
   34.8512   -0.5856   18.7862 S   0  0  0  0  0  0
   33.8438   -1.4064   19.8637 C   0  0  0  0  0  0
   32.3555   -1.3374   19.8193 C   0  0  0  0  0  0
   31.8357   -0.2796   19.0989 C   0  0  0  0  0  0
   30.4612   -0.2030   18.9429 C   0  0  0  0  0  0
   29.6171   -1.1303   19.5214 C   0  0  0  0  0  0
   28.2469   -0.9730   19.3054 O   0  0  0  0  0  0
   30.1400   -2.2107   20.2011 C   0  0  0  0  0  0
   31.5206   -2.2883   20.3381 C   0  0  0  0  0  0
   36.0527   -2.1418   20.3431 C   0  0  0  0  0  0
   34.6347   -2.2855   20.6333 C   0  0  0  0  0  0
   34.1573   -3.1838   21.5686 C   0  0  0  0  0  0
   34.4493   -4.3816   21.4630 O   0  0  0  0  0  0
   33.2972   -2.7837   22.6877 C   0  0  0  0  0  0
   32.7255   -3.7335   23.5103 C   0  0  0  0  0  0
   31.8992   -3.3911   24.5631 C   0  0  0  0  0  0
   31.6136   -2.0442   24.7793 C   0  0  0  0  0  0
   32.1874   -1.0831   23.9662 C   0  0  0  0  0  0
   33.0338   -1.4529   22.9345 C   0  0  0  0  0  0
   30.8261   -1.4746   25.7358 O   0  0  0  0  0  0
   30.4338   -2.3095   26.8147 C   0  0  0  0  0  0
   29.2708   -1.7008   27.5517 C   0  0  0  0  0  0
   27.8974   -1.5347   27.1161 N   0  0  0  0  0  0
   27.1671   -0.7508   28.1326 C   0  0  0  0  0  0
   25.7310   -0.3755   27.7150 C   0  0  0  0  0  0
   24.9643   -1.6951   27.5307 C   0  0  0  0  0  0
   25.6813   -2.3795   26.3264 C   0  0  0  0  0  0
   27.1027   -2.7363   26.7950 C   0  0  0  0  0  0
   40.1901   -0.7034   18.5757 H   0  0  0  0  0  0
   27.9348   -0.2715   18.7682 H   0  0  0  0  0  0
  1  2  2  0  0  0
  1 16  1  0  0  0
  2  3  1  0  0  0
  3  4  1  0  0  0
  3  5  2  0  0  0
  4 35  1  0  0  0
  5  6  1  0  0  0
  6  7  1  0  0  0
  6 16  2  0  0  0
  7  8  1  0  0  0
  8  9  1  0  0  0
  8 17  2  0  0  0
  9 10  2  0  0  0
  9 15  1  0  0  0
 10 11  1  0  0  0
 11 12  2  0  0  0
 12 13  1  0  0  0
 12 14  1  0  0  0
 13 36  1  0  0  0
 14 15  2  0  0  0
 16 17  1  0  0  0
 17 18  1  0  0  0
 18 19  2  0  0  0
 18 20  1  0  0  0
 20 21  2  0  0  0
 20 25  1  0  0  0
 21 22  1  0  0  0
 22 23  2  0  0  0
 23 24  1  0  0  0
 23 26  1  0  0  0
 24 25  2  0  0  0
 26 27  1  0  0  0
 27 28  1  0  0  0
 28 29  1  0  0  0
 29 30  1  0  0  0
 29 34  1  0  0  0
 30 31  1  0  0  0
 31 32  1  0  0  0
 32 33  1  0  0  0
 33 34  1  0  0  0
M  END
>  <CHROM.0>
29.76780406,-60.06804111,57.89466902,-98.43202804

>  <CHROM.1>
-171.01201915,-17.65960780,1.48196012,124.73350335,172.83245948,13.14358978
-163.22001185,69.62582534,-173.84430422,32.19653958,-1.77733105,22.40187117
-0.64741071,-0.15658429,1.77292143

>  <FORMUL>
      RAL    C28 H27 N1 O4 S1

>  <HET>
 RAL  A 600      34

>  <HETNAM>
     RAL RALOXIFENE

>  <Name>
RAL.pdb

>  <RI>
0

>  <Rbt.Current_Directory>
/home/malgorzata/Desktop/rDOCK_IFD/Wyniki/6_estrogen_receptor/IFD

>  <Rbt.Executable>
rbdock ($Id: //depot/dev/client3/rdock/2013.1/src/exe/rbdock.cxx#4 $)

>  <Rbt.Library>
libRbt.so (2013.1, Build901 2013/11/27)

>  <Rbt.Parameter_File>
/home/malgorzata/Desktop/rDock_2013.1_src/data/scripts/dock.prm

>  <Rbt.Receptor>
cavity.prm

>  <SCORE>
-24.8314

>  <SCORE.INTER>
-15.816

>  <SCORE.INTER.CONST>
1

>  <SCORE.INTER.POLAR>
0

>  <SCORE.INTER.REPUL>
0.139019

>  <SCORE.INTER.ROT>
7

>  <SCORE.INTER.VDW>
-28.9111

>  <SCORE.INTER.norm>
-0.465175

>  <SCORE.INTRA>
-3.66755

>  <SCORE.INTRA.DIHEDRAL>
-7.45302

>  <SCORE.INTRA.DIHEDRAL.0>
18.358

>  <SCORE.INTRA.POLAR>
0

>  <SCORE.INTRA.POLAR.0>
0

>  <SCORE.INTRA.REPUL>
0

>  <SCORE.INTRA.REPUL.0>
0

>  <SCORE.INTRA.VDW>
0.0589569

>  <SCORE.INTRA.VDW.0>
-1.94569

>  <SCORE.INTRA.norm>
-0.107869

>  <SCORE.RESTR>
0

>  <SCORE.RESTR.CAVITY>
0

>  <SCORE.RESTR.norm>
0

>  <SCORE.SYSTEM>
-5.34793

>  <SCORE.SYSTEM.CONST>
0

>  <SCORE.SYSTEM.DIHEDRAL>
1.18119

>  <SCORE.SYSTEM.POLAR>
-1.55899

>  <SCORE.SYSTEM.VDW>
-0.637948

>  <SCORE.SYSTEM.norm>
-0.157292

>  <SCORE.heavy>
34

>  <SCORE.norm>
-0.730337

$$$$
RAL.pdb
  rDOCK(R)          3D
libRbt.so/2013.1/901 2013/11/27
 36 40  0  0  0  0  0  0  0  0999 V2000
   34.2845   -1.0214   27.1873 C   0  0  0  0  0  0
   35.2049   -0.2097   27.7989 C   0  0  0  0  0  0
   34.8685    0.6544   28.8033 C   0  0  0  0  0  0
   35.8887    1.3902   29.3527 O   0  0  0  0  0  0
   33.5414    0.7083   29.2445 C   0  0  0  0  0  0
   32.6296   -0.1309   28.6530 C   0  0  0  0  0  0
   31.0033   -0.2673   28.9132 S   0  0  0  0  0  0
   30.6868   -1.4951   27.7988 C   0  0  0  0  0  0
   29.3198   -2.0106   27.5036 C   0  0  0  0  0  0
   28.2990   -1.4204   28.2231 C   0  0  0  0  0  0
   26.9946   -1.7895   27.9372 C   0  0  0  0  0  0
   26.7089   -2.7513   26.9883 C   0  0  0  0  0  0
   25.3643   -3.0541   26.7665 O   0  0  0  0  0  0
   27.7258   -3.3057   26.2390 C   0  0  0  0  0  0
   29.0296   -2.9170   26.5212 C   0  0  0  0  0  0
   33.0048   -1.0093   27.5968 C   0  0  0  0  0  0
   31.8749   -1.7725   27.0902 C   0  0  0  0  0  0
   31.9936   -2.6634   26.0406 C   0  0  0  0  0  0
   31.7409   -3.8600   26.2296 O   0  0  0  0  0  0
   32.4248   -2.2572   24.6985 C   0  0  0  0  0  0
   32.5776   -0.9222   24.3825 C   0  0  0  0  0  0
   32.9676   -0.5057   23.1244 C   0  0  0  0  0  0
   33.1842   -1.4665   22.1383 C   0  0  0  0  0  0
   33.0419   -2.8079   22.4458 C   0  0  0  0  0  0
   32.6761   -3.1988   23.7230 C   0  0  0  0  0  0
   33.5582   -1.2957   20.8382 O   0  0  0  0  0  0
   34.3000   -0.1228   20.5402 C   0  0  0  0  0  0
   34.5022    0.0052   19.0538 C   0  0  0  0  0  0
   35.0804   -0.9457   18.1239 N   0  0  0  0  0  0
   34.8801   -0.4479   16.7479 C   0  0  0  0  0  0
   35.5846   -1.2969   15.6706 C   0  0  0  0  0  0
   34.9605   -2.7003   15.7348 C   0  0  0  0  0  0
   35.3690   -3.2275   17.1448 C   0  0  0  0  0  0
   34.6389   -2.3530   18.1790 C   0  0  0  0  0  0
   36.7525    1.3346   28.9937 H   0  0  0  0  0  0
   24.6961   -2.5804   27.2216 H   0  0  0  0  0  0
  1  2  2  0  0  0
  1 16  1  0  0  0
  2  3  1  0  0  0
  3  4  1  0  0  0
  3  5  2  0  0  0
  4 35  1  0  0  0
  5  6  1  0  0  0
  6  7  1  0  0  0
  6 16  2  0  0  0
  7  8  1  0  0  0
  8  9  1  0  0  0
  8 17  2  0  0  0
  9 10  2  0  0  0
  9 15  1  0  0  0
 10 11  1  0  0  0
 11 12  2  0  0  0
 12 13  1  0  0  0
 12 14  1  0  0  0
 13 36  1  0  0  0
 14 15  2  0  0  0
 16 17  1  0  0  0
 17 18  1  0  0  0
 18 19  2  0  0  0
 18 20  1  0  0  0
 20 21  2  0  0  0
 20 25  1  0  0  0
 21 22  1  0  0  0
 22 23  2  0  0  0
 23 24  1  0  0  0
 23 26  1  0  0  0
 24 25  2  0  0  0
 26 27  1  0  0  0
 27 28  1  0  0  0
 28 29  1  0  0  0
 29 30  1  0  0  0
 29 34  1  0  0  0
 30 31  1  0  0  0
 31 32  1  0  0  0
 32 33  1  0  0  0
 33 34  1  0  0  0
M  END
>  <CHROM.0>
30.94737654,-60.06804111,76.99022577,-93.78190275

>  <CHROM.1>
4.62805373,-0.65410009,3.08483935,-61.10070876,-7.96161922,26.35490680,-173.54100644
-54.91340439,171.76699548,32.32931480,-1.43555044,24.40855661,-2.02091291
-0.38808726,-1.77430486

>  <FORMUL>
      RAL    C28 H27 N1 O4 S1

>  <HET>
 RAL  A 600      34

>  <HETNAM>
     RAL RALOXIFENE

>  <Name>
RAL.pdb

>  <RI>
0

>  <Rbt.Current_Directory>
/home/malgorzata/Desktop/rDOCK_IFD/Wyniki/6_estrogen_receptor/IFD

>  <Rbt.Executable>
rbdock ($Id: //depot/dev/client3/rdock/2013.1/src/exe/rbdock.cxx#4 $)

>  <Rbt.Library>
libRbt.so (2013.1, Build901 2013/11/27)

>  <Rbt.Parameter_File>
/home/malgorzata/Desktop/rDock_2013.1_src/data/scripts/dock.prm

>  <Rbt.Receptor>
cavity.prm

>  <SCORE>
-25.7115

>  <SCORE.INTER>
-17.5375

>  <SCORE.INTER.CONST>
1

>  <SCORE.INTER.POLAR>
-0.682281

>  <SCORE.INTER.REPUL>
0

>  <SCORE.INTER.ROT>
7

>  <SCORE.INTER.VDW>
-27.6177

>  <SCORE.INTER.norm>
-0.515808

>  <SCORE.INTRA>
-3.3731

>  <SCORE.INTRA.DIHEDRAL>
-7.74909

>  <SCORE.INTRA.DIHEDRAL.0>
18.358

>  <SCORE.INTRA.POLAR>
0

>  <SCORE.INTRA.POLAR.0>
0

>  <SCORE.INTRA.REPUL>
0

>  <SCORE.INTRA.REPUL.0>
0

>  <SCORE.INTRA.VDW>
0.501449

>  <SCORE.INTRA.VDW.0>
-1.94569

>  <SCORE.INTRA.norm>
-0.0992087

>  <SCORE.RESTR>
0

>  <SCORE.RESTR.CAVITY>
0

>  <SCORE.RESTR.norm>
0

>  <SCORE.SYSTEM>
-4.80093

>  <SCORE.SYSTEM.CONST>
0

>  <SCORE.SYSTEM.DIHEDRAL>
1.20312

>  <SCORE.SYSTEM.POLAR>
-1.48465

>  <SCORE.SYSTEM.VDW>
-0.354664

>  <SCORE.SYSTEM.norm>
-0.141204

>  <SCORE.heavy>
34

>  <SCORE.norm>
-0.756221

$$$$
