RAL.pdb
  rDOCK(R)          3D
libRbt.so/2013.1/901 2013/11/27
 36 40  0  0  0  0  0  0  0  0999 V2000
   33.9465   -0.9855   26.9654 C   0  0  0  0  0  0
   35.1374   -0.3814   27.2765 C   0  0  0  0  0  0
   35.2045    0.8673   27.8289 C   0  0  0  0  0  0
   36.4569    1.3471   28.1207 O   0  0  0  0  0  0
   34.0192    1.5571   28.1083 C   0  0  0  0  0  0
   32.8280    0.9345   27.8271 C   0  0  0  0  0  0
   31.2830    1.4972   27.9927 S   0  0  0  0  0  0
   30.4703    0.1278   27.4324 C   0  0  0  0  0  0
   28.9915    0.0579   27.2592 C   0  0  0  0  0  0
   28.5036   -1.1665   26.8456 C   0  0  0  0  0  0
   27.1311   -1.3282   26.7481 C   0  0  0  0  0  0
   26.2619   -0.2888   27.0150 C   0  0  0  0  0  0
   24.8955   -0.5480   26.8935 O   0  0  0  0  0  0
   26.7485    0.9183   27.4720 C   0  0  0  0  0  0
   28.1257    1.0659   27.5828 C   0  0  0  0  0  0
   32.7882   -0.3605   27.2360 C   0  0  0  0  0  0
   31.4271   -0.8079   26.9854 C   0  0  0  0  0  0
   31.1443   -2.0201   26.3854 C   0  0  0  0  0  0
   30.4588   -2.8521   26.9931 O   0  0  0  0  0  0
   31.6360   -2.3800   25.0509 C   0  0  0  0  0  0
   31.8561   -3.7005   24.7146 C   0  0  0  0  0  0
   32.3325   -4.0720   23.4723 C   0  0  0  0  0  0
   32.6263   -3.0759   22.5427 C   0  0  0  0  0  0
   32.4021   -1.7496   22.8659 C   0  0  0  0  0  0
   31.8980   -1.4072   24.1095 C   0  0  0  0  0  0
   33.1115   -3.1991   21.2743 O   0  0  0  0  0  0
   34.3779   -3.8256   21.1373 C   0  0  0  0  0  0
   34.7962   -3.8500   19.6913 C   0  0  0  0  0  0
   36.0408   -4.3111   19.1066 N   0  0  0  0  0  0
   37.1194   -3.3756   19.4842 C   0  0  0  0  0  0
   38.5245   -3.8380   19.0488 C   0  0  0  0  0  0
   38.5108   -3.9101   17.5133 C   0  0  0  0  0  0
   37.4839   -5.0416   17.2008 C   0  0  0  0  0  0
   36.1034   -4.5302   17.6483 C   0  0  0  0  0  0
   36.5543    2.0944   28.6776 H   0  0  0  0  0  0
   24.2837    0.1615   26.8769 H   0  0  0  0  0  0
  1  2  2  0  0  0
  1 16  1  0  0  0
  2  3  1  0  0  0
  3  4  1  0  0  0
  3  5  2  0  0  0
  4 35  1  0  0  0
  5  6  1  0  0  0
  6  7  1  0  0  0
  6 16  2  0  0  0
  7  8  1  0  0  0
  8  9  1  0  0  0
  8 17  2  0  0  0
  9 10  2  0  0  0
  9 15  1  0  0  0
 10 11  1  0  0  0
 11 12  2  0  0  0
 12 13  1  0  0  0
 12 14  1  0  0  0
 13 36  1  0  0  0
 14 15  2  0  0  0
 16 17  1  0  0  0
 17 18  1  0  0  0
 18 19  2  0  0  0
 18 20  1  0  0  0
 20 21  2  0  0  0
 20 25  1  0  0  0
 21 22  1  0  0  0
 22 23  2  0  0  0
 23 24  1  0  0  0
 23 26  1  0  0  0
 24 25  2  0  0  0
 26 27  1  0  0  0
 27 28  1  0  0  0
 28 29  1  0  0  0
 29 30  1  0  0  0
 29 34  1  0  0  0
 30 31  1  0  0  0
 31 32  1  0  0  0
 32 33  1  0  0  0
 33 34  1  0  0  0
M  END
>  <CHROM.0>
-170.42017931,-106.02315921,151.78066547,65.29167253,151.11334278

>  <CHROM.1>
-165.47963232,-177.26830888,-166.43490591,-58.61123077,151.62437313,-60.19620249
-178.27263064,175.66927651,-69.58154063,32.49512130,-1.52449507,24.57072597
-2.23225480,-0.13093915,-2.12835751

>  <FORMUL>
      RAL    C28 H27 N1 O4 S1

>  <HET>
 RAL  A 600      34

>  <HETNAM>
     RAL RALOXIFENE

>  <Name>
RAL.pdb

>  <RI>
1.77587e+07

>  <Rbt.Current_Directory>
/home/malgorzata/Desktop/rDOCK_IFD/Wyniki/6_estrogen_receptor/IFD

>  <Rbt.Executable>
rbdock ($Id: //depot/dev/client3/rdock/2013.1/src/exe/rbdock.cxx#4 $)

>  <Rbt.Library>
libRbt.so (2013.1, Build901 2013/11/27)

>  <Rbt.Parameter_File>
/home/malgorzata/Desktop/rDock_2013.1_src/data/scripts/dock.prm

>  <Rbt.Receptor>
cavity.prm

>  <SCORE>
-22.6543

>  <SCORE.INTER>
-18.7629

>  <SCORE.INTER.CONST>
1

>  <SCORE.INTER.POLAR>
-1.3469

>  <SCORE.INTER.REPUL>
0

>  <SCORE.INTER.ROT>
7

>  <SCORE.INTER.VDW>
-26.5835

>  <SCORE.INTER.norm>
-0.55185

>  <SCORE.INTRA>
-0.246829

>  <SCORE.INTRA.DIHEDRAL>
-2.54942

>  <SCORE.INTRA.DIHEDRAL.0>
18.358

>  <SCORE.INTRA.POLAR>
0

>  <SCORE.INTRA.POLAR.0>
0

>  <SCORE.INTRA.REPUL>
0

>  <SCORE.INTRA.REPUL.0>
0

>  <SCORE.INTRA.VDW>
1.02788

>  <SCORE.INTRA.VDW.0>
-1.94569

>  <SCORE.INTRA.norm>
-0.00725967

>  <SCORE.RESTR>
0

>  <SCORE.RESTR.CAVITY>
0

>  <SCORE.RESTR.norm>
0

>  <SCORE.SYSTEM>
-3.64458

>  <SCORE.SYSTEM.CONST>
0

>  <SCORE.SYSTEM.DIHEDRAL>
1.47766

>  <SCORE.SYSTEM.POLAR>
-0.849747

>  <SCORE.SYSTEM.VDW>
-1.49427

>  <SCORE.SYSTEM.norm>
-0.107194

>  <SCORE.heavy>
34

>  <SCORE.norm>
-0.666304

$$$$
RAL.pdb
  rDOCK(R)          3D
libRbt.so/2013.1/901 2013/11/27
 36 40  0  0  0  0  0  0  0  0999 V2000
   33.1656   -1.7450   27.6080 C   0  0  0  0  0  0
   34.2792   -1.2931   28.2681 C   0  0  0  0  0  0
   34.2195   -0.3212   29.2275 C   0  0  0  0  0  0
   35.4022    0.0212   29.8343 O   0  0  0  0  0  0
   32.9785    0.2277   29.5700 C   0  0  0  0  0  0
   31.8617   -0.2520   28.9311 C   0  0  0  0  0  0
   30.2843    0.2193   29.0753 S   0  0  0  0  0  0
   29.6115   -0.8609   27.9662 C   0  0  0  0  0  0
   28.1710   -0.8615   27.5830 C   0  0  0  0  0  0
   27.3663   -0.0095   28.3141 C   0  0  0  0  0  0
   26.0332    0.1055   27.9545 C   0  0  0  0  0  0
   25.4989   -0.6369   26.9199 C   0  0  0  0  0  0
   24.1464   -0.4504   26.6284 O   0  0  0  0  0  0
   26.3138   -1.4520   26.1621 C   0  0  0  0  0  0
   27.6531   -1.5482   26.5196 C   0  0  0  0  0  0
   31.9554   -1.2536   27.9231 C   0  0  0  0  0  0
   30.6583   -1.5800   27.3515 C   0  0  0  0  0  0
   30.5086   -2.5005   26.3318 C   0  0  0  0  0  0
   29.6187   -3.3564   26.4136 O   0  0  0  0  0  0
   31.3742   -2.5222   25.1476 C   0  0  0  0  0  0
   31.8343   -3.7181   24.6341 C   0  0  0  0  0  0
   32.6625   -3.7726   23.5298 C   0  0  0  0  0  0
   33.0670   -2.5779   22.9368 C   0  0  0  0  0  0
   32.6057   -1.3738   23.4379 C   0  0  0  0  0  0
   31.7543   -1.3495   24.5298 C   0  0  0  0  0  0
   33.8802   -2.3846   21.8594 O   0  0  0  0  0  0
   34.1426   -3.5210   21.0503 C   0  0  0  0  0  0
   33.0677   -3.6815   20.0086 C   0  0  0  0  0  0
   33.1049   -4.4217   18.7619 N   0  0  0  0  0  0
   31.8031   -4.2724   18.0806 C   0  0  0  0  0  0
   31.7660   -4.8901   16.6682 C   0  0  0  0  0  0
   32.0128   -6.3979   16.8377 C   0  0  0  0  0  0
   33.4693   -6.4790   17.3896 C   0  0  0  0  0  0
   33.4509   -5.8562   18.7965 C   0  0  0  0  0  0
   36.0751   -0.6213   29.9450 H   0  0  0  0  0  0
   23.8089    0.4149   26.5041 H   0  0  0  0  0  0
  1  2  2  0  0  0
  1 16  1  0  0  0
  2  3  1  0  0  0
  3  4  1  0  0  0
  3  5  2  0  0  0
  4 35  1  0  0  0
  5  6  1  0  0  0
  6  7  1  0  0  0
  6 16  2  0  0  0
  7  8  1  0  0  0
  8  9  1  0  0  0
  8 17  2  0  0  0
  9 10  2  0  0  0
  9 15  1  0  0  0
 10 11  1  0  0  0
 11 12  2  0  0  0
 12 13  1  0  0  0
 12 14  1  0  0  0
 13 36  1  0  0  0
 14 15  2  0  0  0
 16 17  1  0  0  0
 17 18  1  0  0  0
 18 19  2  0  0  0
 18 20  1  0  0  0
 20 21  2  0  0  0
 20 25  1  0  0  0
 21 22  1  0  0  0
 22 23  2  0  0  0
 23 24  1  0  0  0
 23 26  1  0  0  0
 24 25  2  0  0  0
 26 27  1  0  0  0
 27 28  1  0  0  0
 28 29  1  0  0  0
 29 30  1  0  0  0
 29 34  1  0  0  0
 30 31  1  0  0  0
 31 32  1  0  0  0
 32 33  1  0  0  0
 33 34  1  0  0  0
M  END
>  <CHROM.0>
2.45776053,161.07529728,146.57216501,66.18610267,-100.62957297

>  <CHROM.1>
-31.28186269,-7.20689146,50.67416390,-45.87249865,138.22736971,14.46956374
86.60478011,160.07149515,-179.79031215,31.15600264,-2.14125044,24.83983606
-1.86368501,0.06126137,-1.98166154

>  <FORMUL>
      RAL    C28 H27 N1 O4 S1

>  <HET>
 RAL  A 600      34

>  <HETNAM>
     RAL RALOXIFENE

>  <Name>
RAL.pdb

>  <RI>
1.77587e+07

>  <Rbt.Current_Directory>
/home/malgorzata/Desktop/rDOCK_IFD/Wyniki/6_estrogen_receptor/IFD

>  <Rbt.Executable>
rbdock ($Id: //depot/dev/client3/rdock/2013.1/src/exe/rbdock.cxx#4 $)

>  <Rbt.Library>
libRbt.so (2013.1, Build901 2013/11/27)

>  <Rbt.Parameter_File>
/home/malgorzata/Desktop/rDock_2013.1_src/data/scripts/dock.prm

>  <Rbt.Receptor>
cavity.prm

>  <SCORE>
-25.8153

>  <SCORE.INTER>
-24.2519

>  <SCORE.INTER.CONST>
1

>  <SCORE.INTER.POLAR>
-2.51986

>  <SCORE.INTER.REPUL>
0

>  <SCORE.INTER.ROT>
7

>  <SCORE.INTER.VDW>
-28.0844

>  <SCORE.INTER.norm>
-0.713292

>  <SCORE.INTRA>
1.92645

>  <SCORE.INTRA.DIHEDRAL>
2.37113

>  <SCORE.INTRA.DIHEDRAL.0>
18.358

>  <SCORE.INTRA.POLAR>
0

>  <SCORE.INTRA.POLAR.0>
0

>  <SCORE.INTRA.REPUL>
0

>  <SCORE.INTRA.REPUL.0>
0

>  <SCORE.INTRA.VDW>
0.740883

>  <SCORE.INTRA.VDW.0>
-1.94569

>  <SCORE.INTRA.norm>
0.0566602

>  <SCORE.RESTR>
0

>  <SCORE.RESTR.CAVITY>
0

>  <SCORE.RESTR.norm>
0

>  <SCORE.SYSTEM>
-3.48987

>  <SCORE.SYSTEM.CONST>
0

>  <SCORE.SYSTEM.DIHEDRAL>
1.40219

>  <SCORE.SYSTEM.POLAR>
-0.854186

>  <SCORE.SYSTEM.VDW>
-1.28673

>  <SCORE.SYSTEM.norm>
-0.102643

>  <SCORE.heavy>
34

>  <SCORE.norm>
-0.759275

$$$$
RAL.pdb
  rDOCK(R)          3D
libRbt.so/2013.1/901 2013/11/27
 36 40  0  0  0  0  0  0  0  0999 V2000
   27.4640   -2.0362   26.3530 C   0  0  0  0  0  0
   26.1367   -1.7414   26.5296 C   0  0  0  0  0  0
   25.7026   -0.4935   26.8803 C   0  0  0  0  0  0
   24.3458   -0.3215   26.9966 O   0  0  0  0  0  0
   26.6375    0.5340   27.0507 C   0  0  0  0  0  0
   27.9627    0.2430   26.8392 C   0  0  0  0  0  0
   29.2913    1.2115   27.0063 S   0  0  0  0  0  0
   30.4650    0.0833   26.5599 C   0  0  0  0  0  0
   31.9299    0.3558   26.5988 C   0  0  0  0  0  0
   32.2789    1.6857   26.7316 C   0  0  0  0  0  0
   33.6211    2.0032   26.8620 C   0  0  0  0  0  0
   34.5996    1.0296   26.8211 C   0  0  0  0  0  0
   35.9245    1.4453   26.9651 O   0  0  0  0  0  0
   34.2466   -0.3011   26.7349 C   0  0  0  0  0  0
   32.8969   -0.6112   26.6214 C   0  0  0  0  0  0
   28.3881   -1.0707   26.4907 C   0  0  0  0  0  0
   29.8338   -1.1623   26.3586 C   0  0  0  0  0  0
   30.4767   -2.3486   26.0601 C   0  0  0  0  0  0
   30.3334   -3.3214   26.8113 O   0  0  0  0  0  0
   31.3445   -2.5089   24.8883 C   0  0  0  0  0  0
   31.3354   -1.5740   23.8728 C   0  0  0  0  0  0
   32.1290   -1.7027   22.7494 C   0  0  0  0  0  0
   32.9412   -2.8290   22.6290 C   0  0  0  0  0  0
   32.9644   -3.7685   23.6442 C   0  0  0  0  0  0
   32.1787   -3.6007   24.7721 C   0  0  0  0  0  0
   33.7899   -3.1735   21.6188 O   0  0  0  0  0  0
   33.2197   -3.2951   20.3246 C   0  0  0  0  0  0
   34.2992   -3.2985   19.2752 C   0  0  0  0  0  0
   34.9608   -2.1752   18.6396 N   0  0  0  0  0  0
   35.5995   -1.3469   19.6822 C   0  0  0  0  0  0
   36.4658   -0.2008   19.1220 C   0  0  0  0  0  0
   35.5230    0.7213   18.3321 C   0  0  0  0  0  0
   35.0321   -0.1694   17.1496 C   0  0  0  0  0  0
   34.1726   -1.2904   17.7596 C   0  0  0  0  0  0
   23.9754    0.5371   26.9359 H   0  0  0  0  0  0
   36.4210    1.6972   26.2114 H   0  0  0  0  0  0
  1  2  2  0  0  0
  1 16  1  0  0  0
  2  3  1  0  0  0
  3  4  1  0  0  0
  3  5  2  0  0  0
  4 35  1  0  0  0
  5  6  1  0  0  0
  6  7  1  0  0  0
  6 16  2  0  0  0
  7  8  1  0  0  0
  8  9  1  0  0  0
  8 17  2  0  0  0
  9 10  2  0  0  0
  9 15  1  0  0  0
 10 11  1  0  0  0
 11 12  2  0  0  0
 12 13  1  0  0  0
 12 14  1  0  0  0
 13 36  1  0  0  0
 14 15  2  0  0  0
 16 17  1  0  0  0
 17 18  1  0  0  0
 18 19  2  0  0  0
 18 20  1  0  0  0
 20 21  2  0  0  0
 20 25  1  0  0  0
 21 22  1  0  0  0
 22 23  2  0  0  0
 23 24  1  0  0  0
 23 26  1  0  0  0
 24 25  2  0  0  0
 26 27  1  0  0  0
 27 28  1  0  0  0
 28 29  1  0  0  0
 29 30  1  0  0  0
 29 34  1  0  0  0
 30 31  1  0  0  0
 31 32  1  0  0  0
 32 33  1  0  0  0
 33 34  1  0  0  0
M  END
>  <CHROM.0>
-158.30416838,-112.60478993,162.65050989,65.15469350,-114.77530316

>  <CHROM.1>
-158.65411163,-14.19041777,-88.51036738,121.88054750,-14.03478222,-57.97233479
164.39595700,-84.52827425,58.24183596,31.68354008,-0.94818884,24.19819906
2.35514758,0.31569535,1.13034655

>  <FORMUL>
      RAL    C28 H27 N1 O4 S1

>  <HET>
 RAL  A 600      34

>  <HETNAM>
     RAL RALOXIFENE

>  <Name>
RAL.pdb

>  <RI>
1.77587e+07

>  <Rbt.Current_Directory>
/home/malgorzata/Desktop/rDOCK_IFD/Wyniki/6_estrogen_receptor/IFD

>  <Rbt.Executable>
rbdock ($Id: //depot/dev/client3/rdock/2013.1/src/exe/rbdock.cxx#4 $)

>  <Rbt.Library>
libRbt.so (2013.1, Build901 2013/11/27)

>  <Rbt.Parameter_File>
/home/malgorzata/Desktop/rDock_2013.1_src/data/scripts/dock.prm

>  <Rbt.Receptor>
cavity.prm

>  <SCORE>
-31.0896

>  <SCORE.INTER>
-28.2206

>  <SCORE.INTER.CONST>
1

>  <SCORE.INTER.POLAR>
-2.40437

>  <SCORE.INTER.REPUL>
0

>  <SCORE.INTER.ROT>
7

>  <SCORE.INTER.VDW>
-32.4458

>  <SCORE.INTER.norm>
-0.830018

>  <SCORE.INTRA>
0.683391

>  <SCORE.INTRA.DIHEDRAL>
3.08362

>  <SCORE.INTRA.DIHEDRAL.0>
18.358

>  <SCORE.INTRA.POLAR>
0

>  <SCORE.INTRA.POLAR.0>
0

>  <SCORE.INTRA.REPUL>
0

>  <SCORE.INTRA.REPUL.0>
0

>  <SCORE.INTRA.VDW>
-0.858418

>  <SCORE.INTRA.VDW.0>
-1.94569

>  <SCORE.INTRA.norm>
0.0200997

>  <SCORE.RESTR>
0

>  <SCORE.RESTR.CAVITY>
0

>  <SCORE.RESTR.norm>
0

>  <SCORE.SYSTEM>
-3.55239

>  <SCORE.SYSTEM.CONST>
0

>  <SCORE.SYSTEM.DIHEDRAL>
1.99495

>  <SCORE.SYSTEM.POLAR>
-0.848629

>  <SCORE.SYSTEM.VDW>
-1.66452

>  <SCORE.SYSTEM.norm>
-0.104482

>  <SCORE.heavy>
34

>  <SCORE.norm>
-0.914401

$$$$
RAL.pdb
  rDOCK(R)          3D
libRbt.so/2013.1/901 2013/11/27
 36 40  0  0  0  0  0  0  0  0999 V2000
   33.6867   -0.6348   26.8367 C   0  0  0  0  0  0
   34.7588   -0.2651   27.6074 C   0  0  0  0  0  0
   34.6603   -0.0723   28.9572 C   0  0  0  0  0  0
   35.8142    0.2673   29.6184 O   0  0  0  0  0  0
   33.4283   -0.2742   29.5897 C   0  0  0  0  0  0
   32.3654   -0.6778   28.8197 C   0  0  0  0  0  0
   30.7941   -0.9472   29.2552 S   0  0  0  0  0  0
   30.2013   -1.3953   27.7395 C   0  0  0  0  0  0
   28.7651   -1.6871   27.4674 C   0  0  0  0  0  0
   27.8747   -1.1793   28.3933 C   0  0  0  0  0  0
   26.5188   -1.3380   28.1569 C   0  0  0  0  0  0
   26.0550   -2.0197   27.0491 C   0  0  0  0  0  0
   24.6716   -2.1250   26.8935 O   0  0  0  0  0  0
   26.9438   -2.4855   26.1027 C   0  0  0  0  0  0
   28.3013   -2.3070   26.3399 C   0  0  0  0  0  0
   32.4927   -0.8548   27.4124 C   0  0  0  0  0  0
   31.2352   -1.2412   26.7919 C   0  0  0  0  0  0
   31.1101   -1.4348   25.4294 C   0  0  0  0  0  0
   30.1633   -0.9129   24.8273 O   0  0  0  0  0  0
   32.0493   -2.2522   24.6535 C   0  0  0  0  0  0
   32.0539   -2.2003   23.2741 C   0  0  0  0  0  0
   32.9148   -2.9676   22.5136 C   0  0  0  0  0  0
   33.7841   -3.8419   23.1637 C   0  0  0  0  0  0
   33.7938   -3.8964   24.5460 C   0  0  0  0  0  0
   32.9387   -3.0958   25.2847 C   0  0  0  0  0  0
   34.7037   -4.6957   22.6301 O   0  0  0  0  0  0
   35.9510   -4.1314   22.2548 C   0  0  0  0  0  0
   35.7546   -3.0946   21.1811 C   0  0  0  0  0  0
   36.7447   -2.2765   20.5072 N   0  0  0  0  0  0
   36.0520   -1.3539   19.5852 C   0  0  0  0  0  0
   36.9858   -0.3240   18.9180 C   0  0  0  0  0  0
   37.9966   -1.1217   18.0783 C   0  0  0  0  0  0
   38.8068   -1.9312   19.1372 C   0  0  0  0  0  0
   37.8343   -2.9432   19.7677 C   0  0  0  0  0  0
   36.1405   -0.2821   30.3038 H   0  0  0  0  0  0
   24.3164   -2.6470   26.2011 H   0  0  0  0  0  0
  1  2  2  0  0  0
  1 16  1  0  0  0
  2  3  1  0  0  0
  3  4  1  0  0  0
  3  5  2  0  0  0
  4 35  1  0  0  0
  5  6  1  0  0  0
  6  7  1  0  0  0
  6 16  2  0  0  0
  7  8  1  0  0  0
  8  9  1  0  0  0
  8 17  2  0  0  0
  9 10  2  0  0  0
  9 15  1  0  0  0
 10 11  1  0  0  0
 11 12  2  0  0  0
 12 13  1  0  0  0
 12 14  1  0  0  0
 13 36  1  0  0  0
 14 15  2  0  0  0
 16 17  1  0  0  0
 17 18  1  0  0  0
 18 19  2  0  0  0
 18 20  1  0  0  0
 20 21  2  0  0  0
 20 25  1  0  0  0
 21 22  1  0  0  0
 22 23  2  0  0  0
 23 24  1  0  0  0
 23 26  1  0  0  0
 24 25  2  0  0  0
 26 27  1  0  0  0
 27 28  1  0  0  0
 28 29  1  0  0  0
 29 30  1  0  0  0
 29 34  1  0  0  0
 30 31  1  0  0  0
 31 32  1  0  0  0
 32 33  1  0  0  0
 33 34  1  0  0  0
M  END
>  <CHROM.0>
-165.29682657,-96.44948366,170.15554186,65.93031309,115.03608157

>  <CHROM.1>
-120.23740004,19.48866242,-174.24414115,48.28942089,-166.63675357,81.16218113
-61.86180842,-179.87567993,-176.78190837,32.58345604,-1.79126901,25.05307042
-2.39540716,-0.16280799,-1.85803684

>  <FORMUL>
      RAL    C28 H27 N1 O4 S1

>  <HET>
 RAL  A 600      34

>  <HETNAM>
     RAL RALOXIFENE

>  <Name>
RAL.pdb

>  <RI>
1.77587e+07

>  <Rbt.Current_Directory>
/home/malgorzata/Desktop/rDOCK_IFD/Wyniki/6_estrogen_receptor/IFD

>  <Rbt.Executable>
rbdock ($Id: //depot/dev/client3/rdock/2013.1/src/exe/rbdock.cxx#4 $)

>  <Rbt.Library>
libRbt.so (2013.1, Build901 2013/11/27)

>  <Rbt.Parameter_File>
/home/malgorzata/Desktop/rDock_2013.1_src/data/scripts/dock.prm

>  <Rbt.Receptor>
cavity.prm

>  <SCORE>
-30.1525

>  <SCORE.INTER>
-26.7558

>  <SCORE.INTER.CONST>
1

>  <SCORE.INTER.POLAR>
-1.73254

>  <SCORE.INTER.REPUL>
0.00929347

>  <SCORE.INTER.ROT>
7

>  <SCORE.INTER.VDW>
-33.3116

>  <SCORE.INTER.norm>
-0.786934

>  <SCORE.INTRA>
0.26828

>  <SCORE.INTRA.DIHEDRAL>
-1.03845

>  <SCORE.INTRA.DIHEDRAL.0>
18.358

>  <SCORE.INTRA.POLAR>
0

>  <SCORE.INTRA.POLAR.0>
0

>  <SCORE.INTRA.REPUL>
0

>  <SCORE.INTRA.REPUL.0>
0

>  <SCORE.INTRA.VDW>
0.787503

>  <SCORE.INTRA.VDW.0>
-1.94569

>  <SCORE.INTRA.norm>
0.00789059

>  <SCORE.RESTR>
0

>  <SCORE.RESTR.CAVITY>
0

>  <SCORE.RESTR.norm>
0

>  <SCORE.SYSTEM>
-3.66497

>  <SCORE.SYSTEM.CONST>
0

>  <SCORE.SYSTEM.DIHEDRAL>
1.68851

>  <SCORE.SYSTEM.POLAR>
-0.854698

>  <SCORE.SYSTEM.VDW>
-1.60326

>  <SCORE.SYSTEM.norm>
-0.107793

>  <SCORE.heavy>
34

>  <SCORE.norm>
-0.886837

$$$$
RAL.pdb
  rDOCK(R)          3D
libRbt.so/2013.1/901 2013/11/27
 36 40  0  0  0  0  0  0  0  0999 V2000
   27.3904   -2.0076   26.4293 C   0  0  0  0  0  0
   26.0463   -1.7678   26.5544 C   0  0  0  0  0  0
   25.5463   -0.5317   26.8561 C   0  0  0  0  0  0
   24.1802   -0.4176   26.9233 O   0  0  0  0  0  0
   26.4291    0.5406   27.0284 C   0  0  0  0  0  0
   27.7721    0.3036   26.8684 C   0  0  0  0  0  0
   29.0507    1.3346   27.0518 S   0  0  0  0  0  0
   30.2871    0.2487   26.6753 C   0  0  0  0  0  0
   31.7365    0.5873   26.7544 C   0  0  0  0  0  0
   32.5915   -0.4950   26.8289 C   0  0  0  0  0  0
   33.9563   -0.2565   26.8172 C   0  0  0  0  0  0
   34.4635    1.0272   26.7737 C   0  0  0  0  0  0
   35.8524    1.1680   26.7615 O   0  0  0  0  0  0
   33.6094    2.1035   26.6528 C   0  0  0  0  0  0
   32.2425    1.8535   26.6484 C   0  0  0  0  0  0
   28.2663   -0.9983   26.5704 C   0  0  0  0  0  0
   29.7181   -1.0288   26.4881 C   0  0  0  0  0  0
   30.4221   -2.1925   26.2436 C   0  0  0  0  0  0
   30.4074   -3.0983   27.0866 O   0  0  0  0  0  0
   31.2089   -2.4037   25.0236 C   0  0  0  0  0  0
   31.9699   -3.5445   24.8658 C   0  0  0  0  0  0
   32.7334   -3.7671   23.7363 C   0  0  0  0  0  0
   32.7555   -2.7924   22.7403 C   0  0  0  0  0  0
   31.9904   -1.6487   22.8841 C   0  0  0  0  0  0
   31.2127   -1.4637   24.0149 C   0  0  0  0  0  0
   33.4349   -2.7857   21.5581 O   0  0  0  0  0  0
   34.4718   -3.7449   21.4166 C   0  0  0  0  0  0
   35.0679   -3.6717   20.0362 C   0  0  0  0  0  0
   35.5442   -2.5129   19.3055 N   0  0  0  0  0  0
   36.7190   -1.9575   20.0074 C   0  0  0  0  0  0
   37.4123   -0.8091   19.2470 C   0  0  0  0  0  0
   36.3836    0.3268   19.1269 C   0  0  0  0  0  0
   35.2632   -0.2764   18.2249 C   0  0  0  0  0  0
   34.6029   -1.4103   19.0285 C   0  0  0  0  0  0
   23.7768    0.4257   26.8589 H   0  0  0  0  0  0
   36.4006    0.4107   26.8248 H   0  0  0  0  0  0
  1  2  2  0  0  0
  1 16  1  0  0  0
  2  3  1  0  0  0
  3  4  1  0  0  0
  3  5  2  0  0  0
  4 35  1  0  0  0
  5  6  1  0  0  0
  6  7  1  0  0  0
  6 16  2  0  0  0
  7  8  1  0  0  0
  8  9  1  0  0  0
  8 17  2  0  0  0
  9 10  2  0  0  0
  9 15  1  0  0  0
 10 11  1  0  0  0
 11 12  2  0  0  0
 12 13  1  0  0  0
 12 14  1  0  0  0
 13 36  1  0  0  0
 14 15  2  0  0  0
 16 17  1  0  0  0
 17 18  1  0  0  0
 18 19  2  0  0  0
 18 20  1  0  0  0
 20 21  2  0  0  0
 20 25  1  0  0  0
 21 22  1  0  0  0
 22 23  2  0  0  0
 23 24  1  0  0  0
 23 26  1  0  0  0
 24 25  2  0  0  0
 26 27  1  0  0  0
 27 28  1  0  0  0
 28 29  1  0  0  0
 29 30  1  0  0  0
 29 34  1  0  0  0
 30 31  1  0  0  0
 31 32  1  0  0  0
 32 33  1  0  0  0
 33 34  1  0  0  0
M  END
>  <CHROM.0>
-165.22240949,-112.35247038,-178.92637507,-50.20431819,137.85015904

>  <CHROM.1>
-160.94363126,160.33087557,-2.99108877,114.35485234,175.47020251,-14.54273988
176.48046947,49.84532941,65.39336192,31.74820642,-0.98220954,24.41802639
2.48367981,0.32531779,0.98353277

>  <FORMUL>
      RAL    C28 H27 N1 O4 S1

>  <HET>
 RAL  A 600      34

>  <HETNAM>
     RAL RALOXIFENE

>  <Name>
RAL.pdb

>  <RI>
1.77587e+07

>  <Rbt.Current_Directory>
/home/malgorzata/Desktop/rDOCK_IFD/Wyniki/6_estrogen_receptor/IFD

>  <Rbt.Executable>
rbdock ($Id: //depot/dev/client3/rdock/2013.1/src/exe/rbdock.cxx#4 $)

>  <Rbt.Library>
libRbt.so (2013.1, Build901 2013/11/27)

>  <Rbt.Parameter_File>
/home/malgorzata/Desktop/rDock_2013.1_src/data/scripts/dock.prm

>  <Rbt.Receptor>
cavity.prm

>  <SCORE>
-26.8954

>  <SCORE.INTER>
-24.4399

>  <SCORE.INTER.CONST>
1

>  <SCORE.INTER.POLAR>
-1.4908

>  <SCORE.INTER.REPUL>
0

>  <SCORE.INTER.ROT>
7

>  <SCORE.INTER.VDW>
-31.7712

>  <SCORE.INTER.norm>
-0.718821

>  <SCORE.INTRA>
-2.84601

>  <SCORE.INTRA.DIHEDRAL>
-6.41839

>  <SCORE.INTRA.DIHEDRAL.0>
18.358

>  <SCORE.INTRA.POLAR>
0

>  <SCORE.INTRA.POLAR.0>
0

>  <SCORE.INTRA.REPUL>
0

>  <SCORE.INTRA.REPUL.0>
0

>  <SCORE.INTRA.VDW>
0.36318

>  <SCORE.INTRA.VDW.0>
-1.94569

>  <SCORE.INTRA.norm>
-0.0837063

>  <SCORE.RESTR>
0

>  <SCORE.RESTR.CAVITY>
0

>  <SCORE.RESTR.norm>
0

>  <SCORE.SYSTEM>
0.390497

>  <SCORE.SYSTEM.CONST>
0

>  <SCORE.SYSTEM.DIHEDRAL>
1.98252

>  <SCORE.SYSTEM.REPUL>
0.00281746

>  <SCORE.SYSTEM.VDW>
-0.614849

>  <SCORE.SYSTEM.norm>
0.0114852

>  <SCORE.heavy>
34

>  <SCORE.norm>
-0.791042

$$$$
RAL.pdb
  rDOCK(R)          3D
libRbt.so/2013.1/901 2013/11/27
 36 40  0  0  0  0  0  0  0  0999 V2000
   33.3038   -1.4405   27.6207 C   0  0  0  0  0  0
   34.4262   -0.8603   28.1533 C   0  0  0  0  0  0
   34.3733    0.2635   28.9297 C   0  0  0  0  0  0
   35.5657    0.7277   29.4266 O   0  0  0  0  0  0
   33.1309    0.8422   29.2132 C   0  0  0  0  0  0
   32.0066    0.2383   28.7065 C   0  0  0  0  0  0
   30.4237    0.6999   28.8199 S   0  0  0  0  0  0
   29.7427   -0.5697   27.9402 C   0  0  0  0  0  0
   28.2916   -0.6627   27.6125 C   0  0  0  0  0  0
   27.5274    0.4176   28.0085 C   0  0  0  0  0  0
   26.1867    0.4377   27.6594 C   0  0  0  0  0  0
   25.6059   -0.6076   26.9687 C   0  0  0  0  0  0
   24.2494   -0.4959   26.6581 O   0  0  0  0  0  0
   26.3802   -1.6632   26.5343 C   0  0  0  0  0  0
   27.7274   -1.6666   26.8746 C   0  0  0  0  0  0
   32.0927   -0.9227   27.8863 C   0  0  0  0  0  0
   30.7867   -1.3670   27.4252 C   0  0  0  0  0  0
   30.6272   -2.4544   26.5876 C   0  0  0  0  0  0
   29.8424   -3.3561   26.9075 O   0  0  0  0  0  0
   31.3641   -2.6016   25.3276 C   0  0  0  0  0  0
   31.7264   -1.4921   24.5906 C   0  0  0  0  0  0
   32.4073   -1.5966   23.3932 C   0  0  0  0  0  0
   32.7100   -2.8661   22.9038 C   0  0  0  0  0  0
   32.3590   -3.9849   23.6379 C   0  0  0  0  0  0
   31.7006   -3.8501   24.8488 C   0  0  0  0  0  0
   33.3564   -3.2133   21.7545 O   0  0  0  0  0  0
   33.8921   -2.1500   20.9816 C   0  0  0  0  0  0
   34.4007   -2.6664   19.6621 C   0  0  0  0  0  0
   33.6804   -3.3615   18.6126 N   0  0  0  0  0  0
   34.6475   -3.8207   17.5953 C   0  0  0  0  0  0
   34.0230   -4.7074   16.4991 C   0  0  0  0  0  0
   32.9821   -3.8426   15.7698 C   0  0  0  0  0  0
   31.9068   -3.5510   16.8614 C   0  0  0  0  0  0
   32.5768   -2.6634   17.9247 C   0  0  0  0  0  0
   36.3670    0.2990   29.1984 H   0  0  0  0  0  0
   23.8659    0.3496   26.5311 H   0  0  0  0  0  0
  1  2  2  0  0  0
  1 16  1  0  0  0
  2  3  1  0  0  0
  3  4  1  0  0  0
  3  5  2  0  0  0
  4 35  1  0  0  0
  5  6  1  0  0  0
  6  7  1  0  0  0
  6 16  2  0  0  0
  7  8  1  0  0  0
  8  9  1  0  0  0
  8 17  2  0  0  0
  9 10  2  0  0  0
  9 15  1  0  0  0
 10 11  1  0  0  0
 11 12  2  0  0  0
 12 13  1  0  0  0
 12 14  1  0  0  0
 13 36  1  0  0  0
 14 15  2  0  0  0
 16 17  1  0  0  0
 17 18  1  0  0  0
 18 19  2  0  0  0
 18 20  1  0  0  0
 20 21  2  0  0  0
 20 25  1  0  0  0
 21 22  1  0  0  0
 22 23  2  0  0  0
 23 24  1  0  0  0
 23 26  1  0  0  0
 24 25  2  0  0  0
 26 27  1  0  0  0
 27 28  1  0  0  0
 28 29  1  0  0  0
 29 30  1  0  0  0
 29 34  1  0  0  0
 30 31  1  0  0  0
 31 32  1  0  0  0
 32 33  1  0  0  0
 33 34  1  0  0  0
M  END
>  <CHROM.0>
-172.79252730,-105.19355415,152.63025981,65.42097064,-96.55031578

>  <CHROM.1>
2.60727292,3.90257722,29.00741264,-52.06306223,-31.70831684,5.24760188,-172.14085883
59.26185001,-172.56782678,31.34518357,-1.65922793,24.71160098,-1.92231102
-0.00600776,-1.89067891

>  <FORMUL>
      RAL    C28 H27 N1 O4 S1

>  <HET>
 RAL  A 600      34

>  <HETNAM>
     RAL RALOXIFENE

>  <Name>
RAL.pdb

>  <RI>
1.77587e+07

>  <Rbt.Current_Directory>
/home/malgorzata/Desktop/rDOCK_IFD/Wyniki/6_estrogen_receptor/IFD

>  <Rbt.Executable>
rbdock ($Id: //depot/dev/client3/rdock/2013.1/src/exe/rbdock.cxx#4 $)

>  <Rbt.Library>
libRbt.so (2013.1, Build901 2013/11/27)

>  <Rbt.Parameter_File>
/home/malgorzata/Desktop/rDock_2013.1_src/data/scripts/dock.prm

>  <Rbt.Receptor>
cavity.prm

>  <SCORE>
-27.233

>  <SCORE.INTER>
-21.4716

>  <SCORE.INTER.CONST>
1

>  <SCORE.INTER.POLAR>
-1.57907

>  <SCORE.INTER.REPUL>
0

>  <SCORE.INTER.ROT>
7

>  <SCORE.INTER.VDW>
-28.5027

>  <SCORE.INTER.norm>
-0.631517

>  <SCORE.INTRA>
-2.14204

>  <SCORE.INTRA.DIHEDRAL>
-5.88338

>  <SCORE.INTRA.DIHEDRAL.0>
18.358

>  <SCORE.INTRA.POLAR>
0

>  <SCORE.INTRA.POLAR.0>
0

>  <SCORE.INTRA.REPUL>
0

>  <SCORE.INTRA.REPUL.0>
0

>  <SCORE.INTRA.VDW>
0.79965

>  <SCORE.INTRA.VDW.0>
-1.94569

>  <SCORE.INTRA.norm>
-0.0630012

>  <SCORE.RESTR>
0

>  <SCORE.RESTR.CAVITY>
0

>  <SCORE.RESTR.norm>
0

>  <SCORE.SYSTEM>
-3.61943

>  <SCORE.SYSTEM.CONST>
0

>  <SCORE.SYSTEM.DIHEDRAL>
1.42663

>  <SCORE.SYSTEM.POLAR>
-0.850785

>  <SCORE.SYSTEM.VDW>
-1.44007

>  <SCORE.SYSTEM.norm>
-0.106454

>  <SCORE.heavy>
34

>  <SCORE.norm>
-0.800972

$$$$
RAL.pdb
  rDOCK(R)          3D
libRbt.so/2013.1/901 2013/11/27
 36 40  0  0  0  0  0  0  0  0999 V2000
   33.7188   -0.6284   26.6287 C   0  0  0  0  0  0
   34.8009    0.1725   26.8886 C   0  0  0  0  0  0
   34.6733    1.4410   27.3817 C   0  0  0  0  0  0
   35.8358    2.1283   27.6269 O   0  0  0  0  0  0
   33.3961    1.9453   27.6523 C   0  0  0  0  0  0
   32.3170    1.1277   27.4231 C   0  0  0  0  0  0
   30.7038    1.4437   27.5928 S   0  0  0  0  0  0
   30.1148   -0.0634   27.1117 C   0  0  0  0  0  0
   28.6644   -0.3769   26.9708 C   0  0  0  0  0  0
   27.8031    0.5776   27.4758 C   0  0  0  0  0  0
   26.4412    0.3924   27.3011 C   0  0  0  0  0  0
   25.9410   -0.7328   26.6760 C   0  0  0  0  0  0
   24.5547   -0.8296   26.5427 O   0  0  0  0  0  0
   26.8035   -1.6617   26.1320 C   0  0  0  0  0  0
   28.1682   -1.4590   26.2974 C   0  0  0  0  0  0
   32.4785   -0.1841   26.8929 C   0  0  0  0  0  0
   31.2039   -0.8547   26.6896 C   0  0  0  0  0  0
   31.1122   -2.1242   26.1514 C   0  0  0  0  0  0
   30.6242   -3.0366   26.8301 O   0  0  0  0  0  0
   31.5850   -2.4510   24.8017 C   0  0  0  0  0  0
   31.8405   -3.7592   24.4432 C   0  0  0  0  0  0
   32.3006   -4.0993   23.1858 C   0  0  0  0  0  0
   32.5405   -3.0826   22.2631 C   0  0  0  0  0  0
   32.2803   -1.7685   22.6087 C   0  0  0  0  0  0
   31.7937   -1.4584   23.8676 C   0  0  0  0  0  0
   33.0006   -3.1738   20.9827 O   0  0  0  0  0  0
   32.1729   -3.8638   20.0587 C   0  0  0  0  0  0
   32.3755   -3.3223   18.6686 C   0  0  0  0  0  0
   33.5805   -3.3006   17.8618 N   0  0  0  0  0  0
   33.7285   -1.9586   17.2632 C   0  0  0  0  0  0
   35.0546   -1.7601   16.5019 C   0  0  0  0  0  0
   35.0555   -2.7703   15.3431 C   0  0  0  0  0  0
   35.0815   -4.1574   16.0559 C   0  0  0  0  0  0
   33.7398   -4.3072   16.7941 C   0  0  0  0  0  0
   35.8118    2.9346   28.1036 H   0  0  0  0  0  0
   24.1827   -1.4738   25.9729 H   0  0  0  0  0  0
  1  2  2  0  0  0
  1 16  1  0  0  0
  2  3  1  0  0  0
  3  4  1  0  0  0
  3  5  2  0  0  0
  4 35  1  0  0  0
  5  6  1  0  0  0
  6  7  1  0  0  0
  6 16  2  0  0  0
  7  8  1  0  0  0
  8  9  1  0  0  0
  8 17  2  0  0  0
  9 10  2  0  0  0
  9 15  1  0  0  0
 10 11  1  0  0  0
 11 12  2  0  0  0
 12 13  1  0  0  0
 12 14  1  0  0  0
 13 36  1  0  0  0
 14 15  2  0  0  0
 16 17  1  0  0  0
 17 18  1  0  0  0
 18 19  2  0  0  0
 18 20  1  0  0  0
 20 21  2  0  0  0
 20 25  1  0  0  0
 21 22  1  0  0  0
 22 23  2  0  0  0
 23 24  1  0  0  0
 23 26  1  0  0  0
 24 25  2  0  0  0
 26 27  1  0  0  0
 27 28  1  0  0  0
 28 29  1  0  0  0
 29 30  1  0  0  0
 29 34  1  0  0  0
 30 31  1  0  0  0
 31 32  1  0  0  0
 32 33  1  0  0  0
 33 34  1  0  0  0
M  END
>  <CHROM.0>
-6.81653649,-106.11857912,148.13135833,65.83383776,-88.06865562

>  <CHROM.1>
-169.11647920,-10.50519626,166.99612092,-61.44422159,160.91179861,63.83779445
150.90485120,61.33661320,-134.11104567,31.62160142,-1.32653794,23.95051741
-1.98300339,-0.24062276,-2.00633020

>  <FORMUL>
      RAL    C28 H27 N1 O4 S1

>  <HET>
 RAL  A 600      34

>  <HETNAM>
     RAL RALOXIFENE

>  <Name>
RAL.pdb

>  <RI>
1.77587e+07

>  <Rbt.Current_Directory>
/home/malgorzata/Desktop/rDOCK_IFD/Wyniki/6_estrogen_receptor/IFD

>  <Rbt.Executable>
rbdock ($Id: //depot/dev/client3/rdock/2013.1/src/exe/rbdock.cxx#4 $)

>  <Rbt.Library>
libRbt.so (2013.1, Build901 2013/11/27)

>  <Rbt.Parameter_File>
/home/malgorzata/Desktop/rDock_2013.1_src/data/scripts/dock.prm

>  <Rbt.Receptor>
cavity.prm

>  <SCORE>
-20.9133

>  <SCORE.INTER>
-17.2517

>  <SCORE.INTER.CONST>
1

>  <SCORE.INTER.POLAR>
-0.8

>  <SCORE.INTER.REPUL>
0

>  <SCORE.INTER.ROT>
7

>  <SCORE.INTER.VDW>
-26.9317

>  <SCORE.INTER.norm>
-0.507404

>  <SCORE.INTRA>
-0.0292985

>  <SCORE.INTRA.DIHEDRAL>
1.71025

>  <SCORE.INTRA.DIHEDRAL.0>
18.358

>  <SCORE.INTRA.POLAR>
0

>  <SCORE.INTRA.POLAR.0>
0

>  <SCORE.INTRA.REPUL>
0

>  <SCORE.INTRA.REPUL.0>
0

>  <SCORE.INTRA.VDW>
-0.884425

>  <SCORE.INTRA.VDW.0>
-1.94569

>  <SCORE.INTRA.norm>
-0.000861722

>  <SCORE.RESTR>
0

>  <SCORE.RESTR.CAVITY>
0

>  <SCORE.RESTR.norm>
0

>  <SCORE.SYSTEM>
-3.63227

>  <SCORE.SYSTEM.CONST>
0

>  <SCORE.SYSTEM.DIHEDRAL>
1.43919

>  <SCORE.SYSTEM.POLAR>
-0.853979

>  <SCORE.SYSTEM.VDW>
-1.44834

>  <SCORE.SYSTEM.norm>
-0.106831

>  <SCORE.heavy>
34

>  <SCORE.norm>
-0.615097

$$$$
RAL.pdb
  rDOCK(R)          3D
libRbt.so/2013.1/901 2013/11/27
 36 40  0  0  0  0  0  0  0  0999 V2000
   27.1558   -2.0563   26.3878 C   0  0  0  0  0  0
   25.8204   -1.7646   26.4957 C   0  0  0  0  0  0
   25.3662   -0.5215   26.8377 C   0  0  0  0  0  0
   24.0049   -0.3519   26.8822 O   0  0  0  0  0  0
   26.2891    0.5045   27.0714 C   0  0  0  0  0  0
   27.6242    0.2170   26.9287 C   0  0  0  0  0  0
   28.9404    1.1843   27.1798 S   0  0  0  0  0  0
   30.1382    0.0626   26.7838 C   0  0  0  0  0  0
   31.5985    0.3356   26.9057 C   0  0  0  0  0  0
   32.3849   -0.7692   27.1679 C   0  0  0  0  0  0
   33.7598   -0.6029   27.2075 C   0  0  0  0  0  0
   34.3414    0.6372   27.0318 C   0  0  0  0  0  0
   35.7348    0.7055   27.0847 O   0  0  0  0  0  0
   33.5579    1.7301   26.7245 C   0  0  0  0  0  0
   32.1812    1.5504   26.6702 C   0  0  0  0  0  0
   28.0698   -1.0919   26.5876 C   0  0  0  0  0  0
   29.5205   -1.1809   26.5331 C   0  0  0  0  0  0
   30.1803   -2.3628   26.2553 C   0  0  0  0  0  0
   29.9448   -3.3646   26.9425 O   0  0  0  0  0  0
   31.1710   -2.4861   25.1803 C   0  0  0  0  0  0
   31.2945   -1.5013   24.2210 C   0  0  0  0  0  0
   32.2065   -1.5935   23.1875 C   0  0  0  0  0  0
   33.0046   -2.7327   23.0986 C   0  0  0  0  0  0
   32.8951   -3.7225   24.0591 C   0  0  0  0  0  0
   31.9911   -3.5916   25.1000 C   0  0  0  0  0  0
   33.9544   -3.0475   22.1723 O   0  0  0  0  0  0
   33.9911   -2.2438   21.0027 C   0  0  0  0  0  0
   35.1542   -2.6389   20.1324 C   0  0  0  0  0  0
   36.5615   -2.7288   20.4714 N   0  0  0  0  0  0
   37.3172   -3.1240   19.2656 C   0  0  0  0  0  0
   38.8472   -3.1075   19.4573 C   0  0  0  0  0  0
   39.1680   -4.1434   20.5468 C   0  0  0  0  0  0
   38.4893   -3.5638   21.8259 C   0  0  0  0  0  0
   36.9701   -3.6063   21.5856 C   0  0  0  0  0  0
   23.6380    0.5087   26.8301 H   0  0  0  0  0  0
   36.2353   -0.0667   27.2616 H   0  0  0  0  0  0
  1  2  2  0  0  0
  1 16  1  0  0  0
  2  3  1  0  0  0
  3  4  1  0  0  0
  3  5  2  0  0  0
  4 35  1  0  0  0
  5  6  1  0  0  0
  6  7  1  0  0  0
  6 16  2  0  0  0
  7  8  1  0  0  0
  8  9  1  0  0  0
  8 17  2  0  0  0
  9 10  2  0  0  0
  9 15  1  0  0  0
 10 11  1  0  0  0
 11 12  2  0  0  0
 12 13  1  0  0  0
 12 14  1  0  0  0
 13 36  1  0  0  0
 14 15  2  0  0  0
 16 17  1  0  0  0
 17 18  1  0  0  0
 18 19  2  0  0  0
 18 20  1  0  0  0
 20 21  2  0  0  0
 20 25  1  0  0  0
 21 22  1  0  0  0
 22 23  2  0  0  0
 23 24  1  0  0  0
 23 26  1  0  0  0
 24 25  2  0  0  0
 26 27  1  0  0  0
 27 28  1  0  0  0
 28 29  1  0  0  0
 29 30  1  0  0  0
 29 34  1  0  0  0
 30 31  1  0  0  0
 31 32  1  0  0  0
 32 33  1  0  0  0
 33 34  1  0  0  0
M  END
>  <CHROM.0>
-166.04649521,-106.46173979,175.61634840,64.77134515,-109.61761028

>  <CHROM.1>
-159.93100624,150.38649303,-1.92961617,125.64905566,-13.28458697,-12.57157470
175.44010100,-54.55149825,-178.43299768,32.01193860,-1.42478108,24.76624288
2.56229139,0.16151987,0.90153159

>  <FORMUL>
      RAL    C28 H27 N1 O4 S1

>  <HET>
 RAL  A 600      34

>  <HETNAM>
     RAL RALOXIFENE

>  <Name>
RAL.pdb

>  <RI>
1.77587e+07

>  <Rbt.Current_Directory>
/home/malgorzata/Desktop/rDOCK_IFD/Wyniki/6_estrogen_receptor/IFD

>  <Rbt.Executable>
rbdock ($Id: //depot/dev/client3/rdock/2013.1/src/exe/rbdock.cxx#4 $)

>  <Rbt.Library>
libRbt.so (2013.1, Build901 2013/11/27)

>  <Rbt.Parameter_File>
/home/malgorzata/Desktop/rDock_2013.1_src/data/scripts/dock.prm

>  <Rbt.Receptor>
cavity.prm

>  <SCORE>
-32.3628

>  <SCORE.INTER>
-25.394

>  <SCORE.INTER.CONST>
1

>  <SCORE.INTER.POLAR>
-1.59836

>  <SCORE.INTER.REPUL>
0

>  <SCORE.INTER.ROT>
7

>  <SCORE.INTER.VDW>
-32.3596

>  <SCORE.INTER.norm>
-0.746883

>  <SCORE.INTRA>
-3.39101

>  <SCORE.INTRA.DIHEDRAL>
-6.54936

>  <SCORE.INTRA.DIHEDRAL.0>
18.358

>  <SCORE.INTRA.POLAR>
0

>  <SCORE.INTRA.POLAR.0>
0

>  <SCORE.INTRA.REPUL>
0

>  <SCORE.INTRA.REPUL.0>
0

>  <SCORE.INTRA.VDW>
-0.116329

>  <SCORE.INTRA.VDW.0>
-1.94569

>  <SCORE.INTRA.norm>
-0.0997356

>  <SCORE.RESTR>
0

>  <SCORE.RESTR.CAVITY>
0

>  <SCORE.RESTR.norm>
0

>  <SCORE.SYSTEM>
-3.57777

>  <SCORE.SYSTEM.CONST>
0

>  <SCORE.SYSTEM.DIHEDRAL>
1.59825

>  <SCORE.SYSTEM.POLAR>
-0.845394

>  <SCORE.SYSTEM.VDW>
-1.50255

>  <SCORE.SYSTEM.norm>
-0.105228

>  <SCORE.heavy>
34

>  <SCORE.norm>
-0.951847

$$$$
RAL.pdb
  rDOCK(R)          3D
libRbt.so/2013.1/901 2013/11/27
 36 40  0  0  0  0  0  0  0  0999 V2000
   27.1535   -2.1148   26.5215 C   0  0  0  0  0  0
   25.8165   -1.8260   26.6154 C   0  0  0  0  0  0
   25.3548   -0.5686   26.8883 C   0  0  0  0  0  0
   23.9925   -0.4053   26.9258 O   0  0  0  0  0  0
   26.2715    0.4746   27.0626 C   0  0  0  0  0  0
   27.6082    0.1881   26.9337 C   0  0  0  0  0  0
   28.9186    1.1761   27.1278 S   0  0  0  0  0  0
   30.1229    0.0417   26.7930 C   0  0  0  0  0  0
   31.5816    0.3303   26.8967 C   0  0  0  0  0  0
   31.9309    1.6595   26.7581 C   0  0  0  0  0  0
   33.2599    2.0112   26.9299 C   0  0  0  0  0  0
   34.2285    1.0627   27.1930 C   0  0  0  0  0  0
   35.5400    1.5130   27.3545 O   0  0  0  0  0  0
   33.8711   -0.2568   27.3766 C   0  0  0  0  0  0
   32.5333   -0.5976   27.2189 C   0  0  0  0  0  0
   28.0616   -1.1350   26.6654 C   0  0  0  0  0  0
   29.5129   -1.2178   26.6133 C   0  0  0  0  0  0
   30.1798   -2.4092   26.4007 C   0  0  0  0  0  0
   29.8489   -3.4125   27.0451 O   0  0  0  0  0  0
   31.2859   -2.5413   25.4461 C   0  0  0  0  0  0
   31.4417   -1.6318   24.4195 C   0  0  0  0  0  0
   32.4632   -1.7359   23.4954 C   0  0  0  0  0  0
   33.3444   -2.8116   23.5899 C   0  0  0  0  0  0
   33.2028   -3.7247   24.6195 C   0  0  0  0  0  0
   32.1857   -3.5811   25.5483 C   0  0  0  0  0  0
   34.4077   -3.1249   22.7957 O   0  0  0  0  0  0
   34.2713   -4.2775   21.9783 C   0  0  0  0  0  0
   33.1561   -4.0861   20.9853 C   0  0  0  0  0  0
   32.9952   -3.0554   19.9777 N   0  0  0  0  0  0
   31.7320   -3.2938   19.2505 C   0  0  0  0  0  0
   31.3696   -2.1771   18.2509 C   0  0  0  0  0  0
   32.4915   -2.1418   17.2006 C   0  0  0  0  0  0
   33.7507   -1.7081   18.0124 C   0  0  0  0  0  0
   34.0715   -2.8539   18.9880 C   0  0  0  0  0  0
   23.6222    0.4542   26.8812 H   0  0  0  0  0  0
   36.2210    0.9058   27.5680 H   0  0  0  0  0  0
  1  2  2  0  0  0
  1 16  1  0  0  0
  2  3  1  0  0  0
  3  4  1  0  0  0
  3  5  2  0  0  0
  4 35  1  0  0  0
  5  6  1  0  0  0
  6  7  1  0  0  0
  6 16  2  0  0  0
  7  8  1  0  0  0
  8  9  1  0  0  0
  8 17  2  0  0  0
  9 10  2  0  0  0
  9 15  1  0  0  0
 10 11  1  0  0  0
 11 12  2  0  0  0
 12 13  1  0  0  0
 12 14  1  0  0  0
 13 36  1  0  0  0
 14 15  2  0  0  0
 16 17  1  0  0  0
 17 18  1  0  0  0
 18 19  2  0  0  0
 18 20  1  0  0  0
 20 21  2  0  0  0
 20 25  1  0  0  0
 21 22  1  0  0  0
 22 23  2  0  0  0
 23 24  1  0  0  0
 23 26  1  0  0  0
 24 25  2  0  0  0
 26 27  1  0  0  0
 27 28  1  0  0  0
 28 29  1  0  0  0
 29 30  1  0  0  0
 29 34  1  0  0  0
 30 31  1  0  0  0
 31 32  1  0  0  0
 32 33  1  0  0  0
 33 34  1  0  0  0
M  END
>  <CHROM.0>
-6.70548895,-104.69099358,145.72663202,66.14724562,-110.39916477

>  <CHROM.1>
-163.82976508,-24.86516017,177.55637388,133.49610078,-20.98223254,-110.65721330
63.20348174,57.98717867,-179.85197862,31.07133674,-1.34068043,24.60786923
2.17962060,0.08726383,1.15272255

>  <FORMUL>
      RAL    C28 H27 N1 O4 S1

>  <HET>
 RAL  A 600      34

>  <HETNAM>
     RAL RALOXIFENE

>  <Name>
RAL.pdb

>  <RI>
1.77587e+07

>  <Rbt.Current_Directory>
/home/malgorzata/Desktop/rDOCK_IFD/Wyniki/6_estrogen_receptor/IFD

>  <Rbt.Executable>
rbdock ($Id: //depot/dev/client3/rdock/2013.1/src/exe/rbdock.cxx#4 $)

>  <Rbt.Library>
libRbt.so (2013.1, Build901 2013/11/27)

>  <Rbt.Parameter_File>
/home/malgorzata/Desktop/rDock_2013.1_src/data/scripts/dock.prm

>  <Rbt.Receptor>
cavity.prm

>  <SCORE>
-30.2183

>  <SCORE.INTER>
-24.3089

>  <SCORE.INTER.CONST>
1

>  <SCORE.INTER.POLAR>
-1.61652

>  <SCORE.INTER.REPUL>
0

>  <SCORE.INTER.ROT>
7

>  <SCORE.INTER.VDW>
-31.2127

>  <SCORE.INTER.norm>
-0.714966

>  <SCORE.INTRA>
-2.25749

>  <SCORE.INTRA.DIHEDRAL>
-4.23031

>  <SCORE.INTRA.DIHEDRAL.0>
18.358

>  <SCORE.INTRA.POLAR>
0

>  <SCORE.INTRA.POLAR.0>
0

>  <SCORE.INTRA.REPUL>
0

>  <SCORE.INTRA.REPUL.0>
0

>  <SCORE.INTRA.VDW>
-0.142334

>  <SCORE.INTRA.VDW.0>
-1.94569

>  <SCORE.INTRA.norm>
-0.0663967

>  <SCORE.RESTR>
0

>  <SCORE.RESTR.CAVITY>
0

>  <SCORE.RESTR.norm>
0

>  <SCORE.SYSTEM>
-3.65195

>  <SCORE.SYSTEM.CONST>
0

>  <SCORE.SYSTEM.DIHEDRAL>
1.45498

>  <SCORE.SYSTEM.POLAR>
-0.854623

>  <SCORE.SYSTEM.VDW>
-1.47372

>  <SCORE.SYSTEM.norm>
-0.10741

>  <SCORE.heavy>
34

>  <SCORE.norm>
-0.888773

$$$$
RAL.pdb
  rDOCK(R)          3D
libRbt.so/2013.1/901 2013/11/27
 36 40  0  0  0  0  0  0  0  0999 V2000
   34.4502   -1.6777   18.4729 C   0  0  0  0  0  0
   34.4597   -0.5143   17.7475 C   0  0  0  0  0  0
   35.5770    0.2633   17.6223 C   0  0  0  0  0  0
   35.4627    1.3880   16.8439 O   0  0  0  0  0  0
   36.7663   -0.1426   18.2384 C   0  0  0  0  0  0
   36.7615   -1.3258   18.9352 C   0  0  0  0  0  0
   37.9739   -2.0404   19.8017 S   0  0  0  0  0  0
   37.1290   -3.4123   20.3051 C   0  0  0  0  0  0
   37.6938   -4.4384   21.2271 C   0  0  0  0  0  0
   36.8296   -5.4585   21.5743 C   0  0  0  0  0  0
   37.3148   -6.4927   22.3583 C   0  0  0  0  0  0
   38.6155   -6.4966   22.8222 C   0  0  0  0  0  0
   39.0148   -7.5833   23.6024 O   0  0  0  0  0  0
   39.4892   -5.5014   22.4367 C   0  0  0  0  0  0
   38.9982   -4.4771   21.6364 C   0  0  0  0  0  0
   35.5781   -2.1075   19.0633 C   0  0  0  0  0  0
   35.7897   -3.2943   19.8772 C   0  0  0  0  0  0
   34.7733   -4.1843   20.1676 C   0  0  0  0  0  0
   34.5078   -5.0853   19.3620 O   0  0  0  0  0  0
   33.9727   -4.1034   21.3943 C   0  0  0  0  0  0
   34.4567   -3.4478   22.5084 C   0  0  0  0  0  0
   33.7349   -3.3661   23.6834 C   0  0  0  0  0  0
   32.4914   -3.9923   23.7501 C   0  0  0  0  0  0
   31.9928   -4.6453   22.6370 C   0  0  0  0  0  0
   32.7261   -4.6885   21.4631 C   0  0  0  0  0  0
   31.6152   -4.0560   24.7929 O   0  0  0  0  0  0
   32.0372   -3.4664   26.0133 C   0  0  0  0  0  0
   31.6168   -2.0219   26.0698 C   0  0  0  0  0  0
   31.6068   -1.1156   27.2020 N   0  0  0  0  0  0
   31.0536    0.1830   26.7673 C   0  0  0  0  0  0
   30.8489    1.1884   27.9183 C   0  0  0  0  0  0
   32.2383    1.4696   28.5129 C   0  0  0  0  0  0
   32.6751    0.0962   29.1095 C   0  0  0  0  0  0
   32.8694   -0.8657   27.9244 C   0  0  0  0  0  0
   36.0812    1.5483   16.1585 H   0  0  0  0  0  0
   39.8908   -7.6263   23.9324 H   0  0  0  0  0  0
  1  2  2  0  0  0
  1 16  1  0  0  0
  2  3  1  0  0  0
  3  4  1  0  0  0
  3  5  2  0  0  0
  4 35  1  0  0  0
  5  6  1  0  0  0
  6  7  1  0  0  0
  6 16  2  0  0  0
  7  8  1  0  0  0
  8  9  1  0  0  0
  8 17  2  0  0  0
  9 10  2  0  0  0
  9 15  1  0  0  0
 10 11  1  0  0  0
 11 12  2  0  0  0
 12 13  1  0  0  0
 12 14  1  0  0  0
 13 36  1  0  0  0
 14 15  2  0  0  0
 16 17  1  0  0  0
 17 18  1  0  0  0
 18 19  2  0  0  0
 18 20  1  0  0  0
 20 21  2  0  0  0
 20 25  1  0  0  0
 21 22  1  0  0  0
 22 23  2  0  0  0
 23 24  1  0  0  0
 23 26  1  0  0  0
 24 25  2  0  0  0
 26 27  1  0  0  0
 27 28  1  0  0  0
 28 29  1  0  0  0
 29 30  1  0  0  0
 29 34  1  0  0  0
 30 31  1  0  0  0
 31 32  1  0  0  0
 32 33  1  0  0  0
 33 34  1  0  0  0
M  END
>  <CHROM.0>
-162.72808960,-113.67952028,151.39911940,173.41253633,123.17974508

>  <CHROM.1>
-128.24642677,177.10548440,179.64304543,-94.50598275,-22.07278293,-3.56759407
90.53365099,167.14451517,-177.58632341,34.87593068,-2.75357601,22.38637046
0.55986089,0.87198204,-0.96344804

>  <FORMUL>
      RAL    C28 H27 N1 O4 S1

>  <HET>
 RAL  A 600      34

>  <HETNAM>
     RAL RALOXIFENE

>  <Name>
RAL.pdb

>  <RI>
1.77587e+07

>  <Rbt.Current_Directory>
/home/malgorzata/Desktop/rDOCK_IFD/Wyniki/6_estrogen_receptor/IFD

>  <Rbt.Executable>
rbdock ($Id: //depot/dev/client3/rdock/2013.1/src/exe/rbdock.cxx#4 $)

>  <Rbt.Library>
libRbt.so (2013.1, Build901 2013/11/27)

>  <Rbt.Parameter_File>
/home/malgorzata/Desktop/rDock_2013.1_src/data/scripts/dock.prm

>  <Rbt.Receptor>
cavity.prm

>  <SCORE>
-12.9671

>  <SCORE.INTER>
-14.6888

>  <SCORE.INTER.CONST>
1

>  <SCORE.INTER.POLAR>
-0.632456

>  <SCORE.INTER.REPUL>
0

>  <SCORE.INTER.ROT>
7

>  <SCORE.INTER.VDW>
-24.9385

>  <SCORE.INTER.norm>
-0.432024

>  <SCORE.INTRA>
1.26285

>  <SCORE.INTRA.DIHEDRAL>
2.01616

>  <SCORE.INTRA.DIHEDRAL.0>
18.358

>  <SCORE.INTRA.POLAR>
0

>  <SCORE.INTRA.POLAR.0>
0

>  <SCORE.INTRA.REPUL>
0

>  <SCORE.INTRA.REPUL.0>
0

>  <SCORE.INTRA.VDW>
0.254775

>  <SCORE.INTRA.VDW.0>
-1.94569

>  <SCORE.INTRA.norm>
0.0371428

>  <SCORE.RESTR>
0.373158

>  <SCORE.RESTR.CAVITY>
0.373158

>  <SCORE.RESTR.norm>
0.0109752

>  <SCORE.SYSTEM>
0.0856686

>  <SCORE.SYSTEM.CONST>
0

>  <SCORE.SYSTEM.DIHEDRAL>
1.84327

>  <SCORE.SYSTEM.VDW>
-0.835967

>  <SCORE.SYSTEM.norm>
0.00251967

>  <SCORE.heavy>
34

>  <SCORE.norm>
-0.381387

$$$$
