RAL.pdb
  rDOCK(R)          3D
libRbt.so/2013.1/901 2013/11/27
 36 40  0  0  0  0  0  0  0  0999 V2000
   36.8741   -7.0297   21.9128 C   0  0  0  0  0  0
   37.7618   -7.4761   22.8575 C   0  0  0  0  0  0
   39.1152   -7.4374   22.6689 C   0  0  0  0  0  0
   39.8962   -7.8871   23.7042 O   0  0  0  0  0  0
   39.6259   -6.9079   21.4783 C   0  0  0  0  0  0
   38.7346   -6.4304   20.5492 C   0  0  0  0  0  0
   39.0175   -5.8005   19.0478 S   0  0  0  0  0  0
   37.4162   -5.4842   18.6175 C   0  0  0  0  0  0
   37.0066   -4.9670   17.2809 C   0  0  0  0  0  0
   37.9797   -4.2643   16.5972 C   0  0  0  0  0  0
   37.6963   -3.8297   15.3125 C   0  0  0  0  0  0
   36.4627   -4.0503   14.7324 C   0  0  0  0  0  0
   36.2716   -3.5786   13.4325 O   0  0  0  0  0  0
   35.5090   -4.7916   15.3985 C   0  0  0  0  0  0
   35.8082   -5.2379   16.6799 C   0  0  0  0  0  0
   37.3286   -6.4988   20.7652 C   0  0  0  0  0  0
   36.5740   -5.9774   19.6363 C   0  0  0  0  0  0
   35.1924   -5.9744   19.6067 C   0  0  0  0  0  0
   34.6053   -6.5002   18.6527 O   0  0  0  0  0  0
   34.3766   -5.3568   20.6580 C   0  0  0  0  0  0
   34.9117   -4.3935   21.4893 C   0  0  0  0  0  0
   34.1753   -3.8031   22.4980 C   0  0  0  0  0  0
   32.8597   -4.2179   22.6972 C   0  0  0  0  0  0
   32.3104   -5.1769   21.8650 C   0  0  0  0  0  0
   33.0630   -5.7327   20.8440 C   0  0  0  0  0  0
   31.9550   -3.7934   23.6249 O   0  0  0  0  0  0
   32.4835   -3.2816   24.8388 C   0  0  0  0  0  0
   32.6082   -1.7831   24.7649 C   0  0  0  0  0  0
   33.1491   -0.8605   25.7446 N   0  0  0  0  0  0
   32.5255   -1.1375   27.0544 C   0  0  0  0  0  0
   33.1287   -0.3213   28.2153 C   0  0  0  0  0  0
   32.8664    1.1598   27.8983 C   0  0  0  0  0  0
   33.7014    1.4198   26.6069 C   0  0  0  0  0  0
   33.0583    0.5892   25.4826 C   0  0  0  0  0  0
   39.4965   -8.2626   24.4639 H   0  0  0  0  0  0
   35.8129   -4.1035   12.8063 H   0  0  0  0  0  0
  1  2  2  0  0  0
  1 16  1  0  0  0
  2  3  1  0  0  0
  3  4  1  0  0  0
  3  5  2  0  0  0
  4 35  1  0  0  0
  5  6  1  0  0  0
  6  7  1  0  0  0
  6 16  2  0  0  0
  7  8  1  0  0  0
  8  9  1  0  0  0
  8 17  2  0  0  0
  9 10  2  0  0  0
  9 15  1  0  0  0
 10 11  1  0  0  0
 11 12  2  0  0  0
 12 13  1  0  0  0
 12 14  1  0  0  0
 13 36  1  0  0  0
 14 15  2  0  0  0
 16 17  1  0  0  0
 17 18  1  0  0  0
 18 19  2  0  0  0
 18 20  1  0  0  0
 20 21  2  0  0  0
 20 25  1  0  0  0
 21 22  1  0  0  0
 22 23  2  0  0  0
 23 24  1  0  0  0
 23 26  1  0  0  0
 24 25  2  0  0  0
 26 27  1  0  0  0
 27 28  1  0  0  0
 28 29  1  0  0  0
 29 30  1  0  0  0
 29 34  1  0  0  0
 30 31  1  0  0  0
 31 32  1  0  0  0
 32 33  1  0  0  0
 33 34  1  0  0  0
M  END
>  <CHROM.0>
-44.50472539,140.67180708,-61.80903000

>  <CHROM.1>
4.80907528,-24.79375481,138.68633030,54.77742589,21.04053352,-26.96385313
94.51683022,-177.06509744,-50.36972927,35.56411725,-4.32128284,21.25355167
-0.95433610,-0.78099094,1.55712285

>  <FORMUL>
      RAL    C28 H27 N1 O4 S1

>  <HET>
 RAL  A 600      34

>  <HETNAM>
     RAL RALOXIFENE

>  <Name>
RAL.pdb

>  <RI>
0

>  <Rbt.Current_Directory>
/home/malgorzata/Desktop/rDOCK_IFD/Wyniki/6_estrogen_receptor/IFD

>  <Rbt.Executable>
rbdock ($Id: //depot/dev/client3/rdock/2013.1/src/exe/rbdock.cxx#4 $)

>  <Rbt.Library>
libRbt.so (2013.1, Build901 2013/11/27)

>  <Rbt.Parameter_File>
/home/malgorzata/Desktop/rDock_2013.1_src/data/scripts/hard_docking.prm

>  <Rbt.Receptor>
cavity.prm

>  <SCORE>
-10.35

>  <SCORE.INTER>
-12.7304

>  <SCORE.INTER.CONST>
1

>  <SCORE.INTER.POLAR>
-0.871895

>  <SCORE.INTER.REPUL>
0

>  <SCORE.INTER.ROT>
7

>  <SCORE.INTER.VDW>
-22.166

>  <SCORE.INTER.norm>
-0.374424

>  <SCORE.INTRA>
1.62115

>  <SCORE.INTRA.DIHEDRAL>
0.401405

>  <SCORE.INTRA.DIHEDRAL.0>
18.358

>  <SCORE.INTRA.POLAR>
0

>  <SCORE.INTRA.POLAR.0>
0

>  <SCORE.INTRA.REPUL>
0

>  <SCORE.INTRA.REPUL.0>
0

>  <SCORE.INTRA.VDW>
1.42045

>  <SCORE.INTRA.VDW.0>
-1.94569

>  <SCORE.INTRA.norm>
0.047681

>  <SCORE.RESTR>
1.76117

>  <SCORE.RESTR.CAVITY>
1.76117

>  <SCORE.RESTR.norm>
0.0517991

>  <SCORE.SYSTEM>
-1.00196

>  <SCORE.SYSTEM.CONST>
0

>  <SCORE.SYSTEM.DIHEDRAL>
0.82513

>  <SCORE.SYSTEM.POLAR>
-0.177364

>  <SCORE.SYSTEM.VDW>
-0.811491

>  <SCORE.SYSTEM.norm>
-0.0294695

>  <SCORE.heavy>
34

>  <SCORE.norm>
-0.304413

$$$$
RAL.pdb
  rDOCK(R)          3D
libRbt.so/2013.1/901 2013/11/27
 36 40  0  0  0  0  0  0  0  0999 V2000
   35.2733   -5.3956   16.5381 C   0  0  0  0  0  0
   34.9294   -5.2805   15.2158 C   0  0  0  0  0  0
   34.2958   -6.2808   14.5326 C   0  0  0  0  0  0
   33.9798   -6.0288   13.2209 O   0  0  0  0  0  0
   33.9646   -7.4642   15.2023 C   0  0  0  0  0  0
   34.2798   -7.5620   16.5352 C   0  0  0  0  0  0
   34.0686   -8.8288   17.5752 S   0  0  0  0  0  0
   34.7139   -8.1097   18.9594 C   0  0  0  0  0  0
   34.8830   -8.8216   20.2580 C   0  0  0  0  0  0
   35.7963   -8.2556   21.1261 C   0  0  0  0  0  0
   35.9401   -8.8150   22.3854 C   0  0  0  0  0  0
   35.2254   -9.9347   22.7629 C   0  0  0  0  0  0
   35.4345  -10.4242   24.0535 O   0  0  0  0  0  0
   34.2810  -10.4704   21.9121 C   0  0  0  0  0  0
   34.1317   -9.8924   20.6574 C   0  0  0  0  0  0
   34.9553   -6.5103   17.2177 C   0  0  0  0  0  0
   35.2273   -6.8436   18.6072 C   0  0  0  0  0  0
   35.9048   -5.9884   19.4552 C   0  0  0  0  0  0
   37.1316   -5.8706   19.3441 O   0  0  0  0  0  0
   35.2338   -5.2138   20.5049 C   0  0  0  0  0  0
   33.8702   -5.3173   20.6929 C   0  0  0  0  0  0
   33.2056   -4.5910   21.6620 C   0  0  0  0  0  0
   33.9354   -3.7053   22.4530 C   0  0  0  0  0  0
   35.3037   -3.5993   22.2789 C   0  0  0  0  0  0
   35.9486   -4.3596   21.3177 C   0  0  0  0  0  0
   33.5004   -2.8850   23.4516 O   0  0  0  0  0  0
   32.0945   -2.7584   23.6017 C   0  0  0  0  0  0
   31.7699   -1.6876   24.6089 C   0  0  0  0  0  0
   30.4739   -1.2275   25.0696 N   0  0  0  0  0  0
   30.6504    0.0507   25.7881 C   0  0  0  0  0  0
   29.3241    0.7219   26.1982 C   0  0  0  0  0  0
   28.6204   -0.2429   27.1661 C   0  0  0  0  0  0
   28.3069   -1.4926   26.2871 C   0  0  0  0  0  0
   29.6577   -2.1254   25.9098 C   0  0  0  0  0  0
   34.5734   -5.5455   12.6805 H   0  0  0  0  0  0
   36.0460   -9.9993   24.6223 H   0  0  0  0  0  0
  1  2  2  0  0  0
  1 16  1  0  0  0
  2  3  1  0  0  0
  3  4  1  0  0  0
  3  5  2  0  0  0
  4 35  1  0  0  0
  5  6  1  0  0  0
  6  7  1  0  0  0
  6 16  2  0  0  0
  7  8  1  0  0  0
  8  9  1  0  0  0
  8 17  2  0  0  0
  9 10  2  0  0  0
  9 15  1  0  0  0
 10 11  1  0  0  0
 11 12  2  0  0  0
 12 13  1  0  0  0
 12 14  1  0  0  0
 13 36  1  0  0  0
 14 15  2  0  0  0
 16 17  1  0  0  0
 17 18  1  0  0  0
 18 19  2  0  0  0
 18 20  1  0  0  0
 20 21  2  0  0  0
 20 25  1  0  0  0
 21 22  1  0  0  0
 22 23  2  0  0  0
 23 24  1  0  0  0
 23 26  1  0  0  0
 24 25  2  0  0  0
 26 27  1  0  0  0
 27 28  1  0  0  0
 28 29  1  0  0  0
 29 30  1  0  0  0
 29 34  1  0  0  0
 30 31  1  0  0  0
 31 32  1  0  0  0
 32 33  1  0  0  0
 33 34  1  0  0  0
M  END
>  <CHROM.0>
77.12354968,146.34959645,-61.80903000

>  <CHROM.1>
38.19270734,159.72618450,-0.52446011,105.03554493,0.29919285,-9.81309438
-172.33237992,-179.94201639,-165.77212029,33.68300207,-5.50995664,20.90532858
0.53184066,1.08937030,-1.25493622

>  <FORMUL>
      RAL    C28 H27 N1 O4 S1

>  <HET>
 RAL  A 600      34

>  <HETNAM>
     RAL RALOXIFENE

>  <Name>
RAL.pdb

>  <RI>
0

>  <Rbt.Current_Directory>
/home/malgorzata/Desktop/rDOCK_IFD/Wyniki/6_estrogen_receptor/IFD

>  <Rbt.Executable>
rbdock ($Id: //depot/dev/client3/rdock/2013.1/src/exe/rbdock.cxx#4 $)

>  <Rbt.Library>
libRbt.so (2013.1, Build901 2013/11/27)

>  <Rbt.Parameter_File>
/home/malgorzata/Desktop/rDock_2013.1_src/data/scripts/hard_docking.prm

>  <Rbt.Receptor>
cavity.prm

>  <SCORE>
-10.6648

>  <SCORE.INTER>
-9.89255

>  <SCORE.INTER.CONST>
1

>  <SCORE.INTER.POLAR>
-0.902112

>  <SCORE.INTER.REPUL>
0

>  <SCORE.INTER.ROT>
7

>  <SCORE.INTER.VDW>
-19.2254

>  <SCORE.INTER.norm>
-0.290957

>  <SCORE.INTRA>
-1.60254

>  <SCORE.INTRA.DIHEDRAL>
-4.03716

>  <SCORE.INTRA.DIHEDRAL.0>
18.358

>  <SCORE.INTRA.POLAR>
0

>  <SCORE.INTRA.POLAR.0>
0

>  <SCORE.INTRA.REPUL>
0

>  <SCORE.INTRA.REPUL.0>
0

>  <SCORE.INTRA.VDW>
0.416041

>  <SCORE.INTRA.VDW.0>
-1.94569

>  <SCORE.INTRA.norm>
-0.0471335

>  <SCORE.RESTR>
0.832757

>  <SCORE.RESTR.CAVITY>
0.832757

>  <SCORE.RESTR.norm>
0.0244929

>  <SCORE.SYSTEM>
-0.00244575

>  <SCORE.SYSTEM.CONST>
0

>  <SCORE.SYSTEM.DIHEDRAL>
0.824048

>  <SCORE.SYSTEM.REPUL>
0.0432654

>  <SCORE.SYSTEM.VDW>
-0.630797

>  <SCORE.SYSTEM.norm>
-7.19337e-05

>  <SCORE.heavy>
34

>  <SCORE.norm>
-0.31367

$$$$
RAL.pdb
  rDOCK(R)          3D
libRbt.so/2013.1/901 2013/11/27
 36 40  0  0  0  0  0  0  0  0999 V2000
   36.5490   -7.1899   17.9591 C   0  0  0  0  0  0
   35.7615   -7.4924   16.8783 C   0  0  0  0  0  0
   34.6718   -8.3127   16.9709 C   0  0  0  0  0  0
   33.9492   -8.5120   15.8211 O   0  0  0  0  0  0
   34.3270   -8.8555   18.2140 C   0  0  0  0  0  0
   35.0980   -8.5225   19.3004 C   0  0  0  0  0  0
   34.9811   -9.0319   20.8682 S   0  0  0  0  0  0
   36.2795   -8.1571   21.4994 C   0  0  0  0  0  0
   36.7457   -8.2730   22.9104 C   0  0  0  0  0  0
   37.5335   -7.2306   23.3585 C   0  0  0  0  0  0
   37.9299   -7.2298   24.6861 C   0  0  0  0  0  0
   37.5879   -8.2589   25.5412 C   0  0  0  0  0  0
   38.0300   -8.1687   26.8623 O   0  0  0  0  0  0
   36.7633   -9.2747   25.1043 C   0  0  0  0  0  0
   36.3569   -9.2583   23.7757 C   0  0  0  0  0  0
   36.2379   -7.6787   19.1715 C   0  0  0  0  0  0
   36.9304   -7.4947   20.4373 C   0  0  0  0  0  0
   38.0846   -6.7428   20.5479 C   0  0  0  0  0  0
   39.1588   -7.3117   20.7793 O   0  0  0  0  0  0
   38.0965   -5.2817   20.4173 C   0  0  0  0  0  0
   37.0153   -4.5294   20.8304 C   0  0  0  0  0  0
   36.9885   -3.1537   20.7078 C   0  0  0  0  0  0
   38.0781   -2.5125   20.1211 C   0  0  0  0  0  0
   39.1706   -3.2555   19.7107 C   0  0  0  0  0  0
   39.1822   -4.6310   19.8704 C   0  0  0  0  0  0
   38.2696   -1.1830   19.8863 O   0  0  0  0  0  0
   38.2370   -0.7670   18.5295 C   0  0  0  0  0  0
   36.8187   -0.7347   18.0258 C   0  0  0  0  0  0
   35.9241   -1.8398   17.7393 N   0  0  0  0  0  0
   34.9486   -1.9605   18.8415 C   0  0  0  0  0  0
   33.8450   -3.0061   18.5835 C   0  0  0  0  0  0
   34.5466   -4.3678   18.4548 C   0  0  0  0  0  0
   35.4173   -4.2203   17.1693 C   0  0  0  0  0  0
   36.5012   -3.1732   17.4798 C   0  0  0  0  0  0
   33.1826   -9.0505   15.8369 H   0  0  0  0  0  0
   37.8126   -8.8425   27.4762 H   0  0  0  0  0  0
  1  2  2  0  0  0
  1 16  1  0  0  0
  2  3  1  0  0  0
  3  4  1  0  0  0
  3  5  2  0  0  0
  4 35  1  0  0  0
  5  6  1  0  0  0
  6  7  1  0  0  0
  6 16  2  0  0  0
  7  8  1  0  0  0
  8  9  1  0  0  0
  8 17  2  0  0  0
  9 10  2  0  0  0
  9 15  1  0  0  0
 10 11  1  0  0  0
 11 12  2  0  0  0
 12 13  1  0  0  0
 12 14  1  0  0  0
 13 36  1  0  0  0
 14 15  2  0  0  0
 16 17  1  0  0  0
 17 18  1  0  0  0
 18 19  2  0  0  0
 18 20  1  0  0  0
 20 21  2  0  0  0
 20 25  1  0  0  0
 21 22  1  0  0  0
 22 23  2  0  0  0
 23 24  1  0  0  0
 23 26  1  0  0  0
 24 25  2  0  0  0
 26 27  1  0  0  0
 27 28  1  0  0  0
 28 29  1  0  0  0
 29 30  1  0  0  0
 29 34  1  0  0  0
 30 31  1  0  0  0
 31 32  1  0  0  0
 32 33  1  0  0  0
 33 34  1  0  0  0
M  END
>  <CHROM.0>
-46.04095633,-106.30303555,-61.80903000

>  <CHROM.1>
-178.62892201,-161.66443159,179.44627160,70.19088650,32.52574956,-109.98726578
75.55094030,-70.76441116,103.18471493,36.57576365,-5.88305573,20.21000576
1.69839769,-1.03143657,-0.63993056

>  <FORMUL>
      RAL    C28 H27 N1 O4 S1

>  <HET>
 RAL  A 600      34

>  <HETNAM>
     RAL RALOXIFENE

>  <Name>
RAL.pdb

>  <RI>
0

>  <Rbt.Current_Directory>
/home/malgorzata/Desktop/rDOCK_IFD/Wyniki/6_estrogen_receptor/IFD

>  <Rbt.Executable>
rbdock ($Id: //depot/dev/client3/rdock/2013.1/src/exe/rbdock.cxx#4 $)

>  <Rbt.Library>
libRbt.so (2013.1, Build901 2013/11/27)

>  <Rbt.Parameter_File>
/home/malgorzata/Desktop/rDock_2013.1_src/data/scripts/hard_docking.prm

>  <Rbt.Receptor>
cavity.prm

>  <SCORE>
-4.56146

>  <SCORE.INTER>
-6.92849

>  <SCORE.INTER.CONST>
1

>  <SCORE.INTER.POLAR>
0

>  <SCORE.INTER.REPUL>
0

>  <SCORE.INTER.ROT>
7

>  <SCORE.INTER.VDW>
-19.3285

>  <SCORE.INTER.norm>
-0.203779

>  <SCORE.INTRA>
-0.309052

>  <SCORE.INTRA.DIHEDRAL>
4.95549

>  <SCORE.INTRA.DIHEDRAL.0>
18.358

>  <SCORE.INTRA.POLAR>
0

>  <SCORE.INTRA.POLAR.0>
0

>  <SCORE.INTRA.REPUL>
0

>  <SCORE.INTRA.REPUL.0>
0

>  <SCORE.INTRA.VDW>
-2.7868

>  <SCORE.INTRA.VDW.0>
-1.94569

>  <SCORE.INTRA.norm>
-0.00908976

>  <SCORE.RESTR>
3.8807

>  <SCORE.RESTR.CAVITY>
3.8807

>  <SCORE.RESTR.norm>
0.114138

>  <SCORE.SYSTEM>
-1.20461

>  <SCORE.SYSTEM.CONST>
0

>  <SCORE.SYSTEM.DIHEDRAL>
0.825846

>  <SCORE.SYSTEM.POLAR>
-0.17258

>  <SCORE.SYSTEM.VDW>
-1.03077

>  <SCORE.SYSTEM.norm>
-0.0354298

>  <SCORE.heavy>
34

>  <SCORE.norm>
-0.13416

$$$$
RAL.pdb
  rDOCK(R)          3D
libRbt.so/2013.1/901 2013/11/27
 36 40  0  0  0  0  0  0  0  0999 V2000
   35.0656   -1.1955   18.7907 C   0  0  0  0  0  0
   35.0932    0.1164   18.3934 C   0  0  0  0  0  0
   36.2546    0.8321   18.3051 C   0  0  0  0  0  0
   36.1496    2.1282   17.8659 O   0  0  0  0  0  0
   37.4689    0.2074   18.6121 C   0  0  0  0  0  0
   37.4403   -1.1162   18.9763 C   0  0  0  0  0  0
   38.6799   -2.1059   19.4401 S   0  0  0  0  0  0
   37.7790   -3.5102   19.6971 C   0  0  0  0  0  0
   38.3566   -4.7762   20.2313 C   0  0  0  0  0  0
   37.4531   -5.6262   20.8387 C   0  0  0  0  0  0
   37.9052   -6.8592   21.2803 C   0  0  0  0  0  0
   39.2310   -7.2264   21.1600 C   0  0  0  0  0  0
   39.5917   -8.4903   21.6304 O   0  0  0  0  0  0
   40.1216   -6.3958   20.5122 C   0  0  0  0  0  0
   39.6554   -5.1683   20.0575 C   0  0  0  0  0  0
   36.2136   -1.8327   19.0761 C   0  0  0  0  0  0
   36.4133   -3.2038   19.5189 C   0  0  0  0  0  0
   35.3620   -4.0775   19.7212 C   0  0  0  0  0  0
   34.4885   -3.7934   20.5503 O   0  0  0  0  0  0
   35.2369   -5.3500   19.0020 C   0  0  0  0  0  0
   34.1665   -6.1892   19.2376 C   0  0  0  0  0  0
   34.0267   -7.4006   18.5885 C   0  0  0  0  0  0
   35.0157   -7.7966   17.6898 C   0  0  0  0  0  0
   36.0888   -6.9600   17.4397 C   0  0  0  0  0  0
   36.1900   -5.7386   18.0845 C   0  0  0  0  0  0
   35.0981   -8.9389   16.9498 O   0  0  0  0  0  0
   34.7759   -8.8271   15.5719 C   0  0  0  0  0  0
   33.3003   -8.5854   15.3972 C   0  0  0  0  0  0
   32.1881   -9.4716   15.6818 N   0  0  0  0  0  0
   30.9284   -8.7774   15.3461 C   0  0  0  0  0  0
   29.6764   -9.6701   15.4620 C   0  0  0  0  0  0
   29.5732  -10.0990   16.9345 C   0  0  0  0  0  0
   30.8442  -10.9746   17.1594 C   0  0  0  0  0  0
   32.0600  -10.0393   17.0381 C   0  0  0  0  0  0
   36.9175    2.6589   17.7843 H   0  0  0  0  0  0
   38.9396   -9.0615   21.9862 H   0  0  0  0  0  0
  1  2  2  0  0  0
  1 16  1  0  0  0
  2  3  1  0  0  0
  3  4  1  0  0  0
  3  5  2  0  0  0
  4 35  1  0  0  0
  5  6  1  0  0  0
  6  7  1  0  0  0
  6 16  2  0  0  0
  7  8  1  0  0  0
  8  9  1  0  0  0
  8 17  2  0  0  0
  9 10  2  0  0  0
  9 15  1  0  0  0
 10 11  1  0  0  0
 11 12  2  0  0  0
 12 13  1  0  0  0
 12 14  1  0  0  0
 13 36  1  0  0  0
 14 15  2  0  0  0
 16 17  1  0  0  0
 17 18  1  0  0  0
 18 19  2  0  0  0
 18 20  1  0  0  0
 20 21  2  0  0  0
 20 25  1  0  0  0
 21 22  1  0  0  0
 22 23  2  0  0  0
 23 24  1  0  0  0
 23 26  1  0  0  0
 24 25  2  0  0  0
 26 27  1  0  0  0
 27 28  1  0  0  0
 28 29  1  0  0  0
 29 30  1  0  0  0
 29 34  1  0  0  0
 30 31  1  0  0  0
 31 32  1  0  0  0
 32 33  1  0  0  0
 33 34  1  0  0  0
M  END
>  <CHROM.0>
-43.92467213,-103.62755159,-61.80903000

>  <CHROM.1>
-179.71305552,156.71808248,1.80035436,120.86227444,-179.91400443,103.37105462
-70.04519190,-67.02469562,179.86295986,35.59237211,-5.43798869,18.53762992
0.87583633,-0.53899573,-0.05208930

>  <FORMUL>
      RAL    C28 H27 N1 O4 S1

>  <HET>
 RAL  A 600      34

>  <HETNAM>
     RAL RALOXIFENE

>  <Name>
RAL.pdb

>  <RI>
0

>  <Rbt.Current_Directory>
/home/malgorzata/Desktop/rDOCK_IFD/Wyniki/6_estrogen_receptor/IFD

>  <Rbt.Executable>
rbdock ($Id: //depot/dev/client3/rdock/2013.1/src/exe/rbdock.cxx#4 $)

>  <Rbt.Library>
libRbt.so (2013.1, Build901 2013/11/27)

>  <Rbt.Parameter_File>
/home/malgorzata/Desktop/rDock_2013.1_src/data/scripts/hard_docking.prm

>  <Rbt.Receptor>
cavity.prm

>  <SCORE>
-5.13578

>  <SCORE.INTER>
-6.75084

>  <SCORE.INTER.CONST>
1

>  <SCORE.INTER.POLAR>
0

>  <SCORE.INTER.REPUL>
0

>  <SCORE.INTER.ROT>
7

>  <SCORE.INTER.VDW>
-19.1508

>  <SCORE.INTER.norm>
-0.198554

>  <SCORE.INTRA>
-1.39816

>  <SCORE.INTRA.DIHEDRAL>
-3.01512

>  <SCORE.INTRA.DIHEDRAL.0>
18.358

>  <SCORE.INTRA.POLAR>
0

>  <SCORE.INTRA.POLAR.0>
0

>  <SCORE.INTRA.REPUL>
0

>  <SCORE.INTRA.REPUL.0>
0

>  <SCORE.INTRA.VDW>
0.109406

>  <SCORE.INTRA.VDW.0>
-1.94569

>  <SCORE.INTRA.norm>
-0.0411222

>  <SCORE.RESTR>
4.21054

>  <SCORE.RESTR.CAVITY>
4.21054

>  <SCORE.RESTR.norm>
0.12384

>  <SCORE.SYSTEM>
-1.19733

>  <SCORE.SYSTEM.CONST>
0

>  <SCORE.SYSTEM.DIHEDRAL>
0.824188

>  <SCORE.SYSTEM.POLAR>
-0.178069

>  <SCORE.SYSTEM.VDW>
-1.00399

>  <SCORE.SYSTEM.norm>
-0.0352156

>  <SCORE.heavy>
34

>  <SCORE.norm>
-0.151052

$$$$
RAL.pdb
  rDOCK(R)          3D
libRbt.so/2013.1/901 2013/11/27
 36 40  0  0  0  0  0  0  0  0999 V2000
   36.9441   -7.5365   22.9097 C   0  0  0  0  0  0
   37.6475   -8.1221   23.9305 C   0  0  0  0  0  0
   39.0119   -8.2073   23.9270 C   0  0  0  0  0  0
   39.5971   -8.7909   25.0228 O   0  0  0  0  0  0
   39.7292   -7.6639   22.8551 C   0  0  0  0  0  0
   39.0229   -7.0478   21.8515 C   0  0  0  0  0  0
   39.5680   -6.3642   20.4492 S   0  0  0  0  0  0
   38.0775   -5.8663   19.8327 C   0  0  0  0  0  0
   37.9066   -5.2353   18.4932 C   0  0  0  0  0  0
   36.5982   -5.0267   18.1024 C   0  0  0  0  0  0
   36.3668   -4.3652   16.9072 C   0  0  0  0  0  0
   37.4071   -3.9552   16.0968 C   0  0  0  0  0  0
   37.0757   -3.2928   14.9135 O   0  0  0  0  0  0
   38.7123   -4.1232   16.5105 C   0  0  0  0  0  0
   38.9345   -4.7726   17.7186 C   0  0  0  0  0  0
   37.6002   -6.9885   21.8730 C   0  0  0  0  0  0
   37.0604   -6.3310   20.6931 C   0  0  0  0  0  0
   35.7025   -6.1891   20.4801 C   0  0  0  0  0  0
   35.1611   -6.8309   19.5712 O   0  0  0  0  0  0
   34.8623   -5.2913   21.2802 C   0  0  0  0  0  0
   35.4322   -4.3243   22.0838 C   0  0  0  0  0  0
   34.6705   -3.4731   22.8607 C   0  0  0  0  0  0
   33.2844   -3.6186   22.8515 C   0  0  0  0  0  0
   32.7018   -4.5790   22.0438 C   0  0  0  0  0  0
   33.4881   -5.4012   21.2542 C   0  0  0  0  0  0
   32.3406   -2.9115   23.5361 O   0  0  0  0  0  0
   31.8779   -3.4815   24.7510 C   0  0  0  0  0  0
   32.9817   -3.4994   25.7746 C   0  0  0  0  0  0
   33.8120   -2.4069   26.2440 N   0  0  0  0  0  0
   34.6719   -2.8991   27.3392 C   0  0  0  0  0  0
   35.7118   -1.8690   27.8243 C   0  0  0  0  0  0
   34.9234   -0.6708   28.3774 C   0  0  0  0  0  0
   34.1862   -0.0987   27.1276 C   0  0  0  0  0  0
   33.1612   -1.1586   26.6877 C   0  0  0  0  0  0
   39.0633   -9.1299   25.7143 H   0  0  0  0  0  0
   37.7523   -3.0029   14.3336 H   0  0  0  0  0  0
  1  2  2  0  0  0
  1 16  1  0  0  0
  2  3  1  0  0  0
  3  4  1  0  0  0
  3  5  2  0  0  0
  4 35  1  0  0  0
  5  6  1  0  0  0
  6  7  1  0  0  0
  6 16  2  0  0  0
  7  8  1  0  0  0
  8  9  1  0  0  0
  8 17  2  0  0  0
  9 10  2  0  0  0
  9 15  1  0  0  0
 10 11  1  0  0  0
 11 12  2  0  0  0
 12 13  1  0  0  0
 12 14  1  0  0  0
 13 36  1  0  0  0
 14 15  2  0  0  0
 16 17  1  0  0  0
 17 18  1  0  0  0
 18 19  2  0  0  0
 18 20  1  0  0  0
 20 21  2  0  0  0
 20 25  1  0  0  0
 21 22  1  0  0  0
 22 23  2  0  0  0
 23 24  1  0  0  0
 23 26  1  0  0  0
 24 25  2  0  0  0
 26 27  1  0  0  0
 27 28  1  0  0  0
 28 29  1  0  0  0
 29 30  1  0  0  0
 29 34  1  0  0  0
 30 31  1  0  0  0
 31 32  1  0  0  0
 32 33  1  0  0  0
 33 34  1  0  0  0
M  END
>  <CHROM.0>
-40.25410401,136.67812711,-61.80903000

>  <CHROM.1>
1.78780933,173.34259201,-179.64135471,69.70651300,14.69472476,-96.48877694
66.99953141,53.62029643,175.04063340,36.15954719,-4.79237843,22.12061212
-0.93377434,-0.76377749,1.65790307

>  <FORMUL>
      RAL    C28 H27 N1 O4 S1

>  <HET>
 RAL  A 600      34

>  <HETNAM>
     RAL RALOXIFENE

>  <Name>
RAL.pdb

>  <RI>
0

>  <Rbt.Current_Directory>
/home/malgorzata/Desktop/rDOCK_IFD/Wyniki/6_estrogen_receptor/IFD

>  <Rbt.Executable>
rbdock ($Id: //depot/dev/client3/rdock/2013.1/src/exe/rbdock.cxx#4 $)

>  <Rbt.Library>
libRbt.so (2013.1, Build901 2013/11/27)

>  <Rbt.Parameter_File>
/home/malgorzata/Desktop/rDock_2013.1_src/data/scripts/hard_docking.prm

>  <Rbt.Receptor>
cavity.prm

>  <SCORE>
-7.0191

>  <SCORE.INTER>
-8.88677

>  <SCORE.INTER.CONST>
1

>  <SCORE.INTER.POLAR>
0

>  <SCORE.INTER.REPUL>
0

>  <SCORE.INTER.ROT>
7

>  <SCORE.INTER.VDW>
-21.2868

>  <SCORE.INTER.norm>
-0.261376

>  <SCORE.INTRA>
-0.39023

>  <SCORE.INTRA.DIHEDRAL>
-1.97574

>  <SCORE.INTRA.DIHEDRAL.0>
18.358

>  <SCORE.INTRA.POLAR>
0

>  <SCORE.INTRA.POLAR.0>
0

>  <SCORE.INTRA.REPUL>
0

>  <SCORE.INTRA.REPUL.0>
0

>  <SCORE.INTRA.VDW>
0.59764

>  <SCORE.INTRA.VDW.0>
-1.94569

>  <SCORE.INTRA.norm>
-0.0114773

>  <SCORE.RESTR>
3.23462

>  <SCORE.RESTR.CAVITY>
3.23462

>  <SCORE.RESTR.norm>
0.0951359

>  <SCORE.SYSTEM>
-0.976716

>  <SCORE.SYSTEM.CONST>
0

>  <SCORE.SYSTEM.DIHEDRAL>
0.821415

>  <SCORE.SYSTEM.POLAR>
-0.180133

>  <SCORE.SYSTEM.VDW>
-0.774971

>  <SCORE.SYSTEM.norm>
-0.0287269

>  <SCORE.heavy>
34

>  <SCORE.norm>
-0.206444

$$$$
RAL.pdb
  rDOCK(R)          3D
libRbt.so/2013.1/901 2013/11/27
 36 40  0  0  0  0  0  0  0  0999 V2000
   35.2014   -5.2407   16.2393 C   0  0  0  0  0  0
   34.8674   -5.1789   14.9110 C   0  0  0  0  0  0
   34.2011   -6.1885   14.2742 C   0  0  0  0  0  0
   33.8997   -5.9906   12.9498 O   0  0  0  0  0  0
   33.8248   -7.3248   14.9994 C   0  0  0  0  0  0
   34.1308   -7.3677   16.3373 C   0  0  0  0  0  0
   33.8700   -8.5732   17.4372 S   0  0  0  0  0  0
   34.5350   -7.8100   18.7881 C   0  0  0  0  0  0
   34.6731   -8.4624   20.1211 C   0  0  0  0  0  0
   33.9955   -9.6574   20.2657 C   0  0  0  0  0  0
   34.1499  -10.3617   21.4487 C   0  0  0  0  0  0
   34.9257   -9.8742   22.4820 C   0  0  0  0  0  0
   35.0246  -10.6565   23.6340 O   0  0  0  0  0  0
   35.6379   -8.7043   22.3183 C   0  0  0  0  0  0
   35.4900   -8.0133   21.1219 C   0  0  0  0  0  0
   34.8408   -6.3083   16.9711 C   0  0  0  0  0  0
   35.0950   -6.5820   18.3769 C   0  0  0  0  0  0
   35.7993   -5.7106   19.1857 C   0  0  0  0  0  0
   36.9785   -5.4509   18.9149 O   0  0  0  0  0  0
   35.2141   -5.0811   20.3746 C   0  0  0  0  0  0
   33.8838   -5.2725   20.6893 C   0  0  0  0  0  0
   33.2983   -4.6826   21.7928 C   0  0  0  0  0  0
   34.0725   -3.8452   22.5940 C   0  0  0  0  0  0
   35.4090   -3.6525   22.2928 C   0  0  0  0  0  0
   35.9771   -4.2780   21.1956 C   0  0  0  0  0  0
   33.7145   -3.1530   23.7129 O   0  0  0  0  0  0
   32.5271   -3.5743   24.3669 C   0  0  0  0  0  0
   32.3273   -2.7974   25.6409 C   0  0  0  0  0  0
   33.2492   -2.5922   26.7415 N   0  0  0  0  0  0
   33.8246   -3.8957   27.1298 C   0  0  0  0  0  0
   34.9368   -3.7927   28.1929 C   0  0  0  0  0  0
   34.2906   -3.1949   29.4531 C   0  0  0  0  0  0
   33.8729   -1.7578   29.0138 C   0  0  0  0  0  0
   32.7629   -1.9161   27.9601 C   0  0  0  0  0  0
   34.5004   -5.5319   12.3961 H   0  0  0  0  0  0
   35.0108  -10.2506   24.4785 H   0  0  0  0  0  0
  1  2  2  0  0  0
  1 16  1  0  0  0
  2  3  1  0  0  0
  3  4  1  0  0  0
  3  5  2  0  0  0
  4 35  1  0  0  0
  5  6  1  0  0  0
  6  7  1  0  0  0
  6 16  2  0  0  0
  7  8  1  0  0  0
  8  9  1  0  0  0
  8 17  2  0  0  0
  9 10  2  0  0  0
  9 15  1  0  0  0
 10 11  1  0  0  0
 11 12  2  0  0  0
 12 13  1  0  0  0
 12 14  1  0  0  0
 13 36  1  0  0  0
 14 15  2  0  0  0
 16 17  1  0  0  0
 17 18  1  0  0  0
 18 19  2  0  0  0
 18 20  1  0  0  0
 20 21  2  0  0  0
 20 25  1  0  0  0
 21 22  1  0  0  0
 22 23  2  0  0  0
 23 24  1  0  0  0
 23 26  1  0  0  0
 24 25  2  0  0  0
 26 27  1  0  0  0
 27 28  1  0  0  0
 28 29  1  0  0  0
 29 30  1  0  0  0
 29 34  1  0  0  0
 30 31  1  0  0  0
 31 32  1  0  0  0
 32 33  1  0  0  0
 33 34  1  0  0  0
M  END
>  <CHROM.0>
61.24396717,-85.72708958,-61.80903000

>  <CHROM.1>
36.23173099,-11.64610657,-139.98980745,118.64143086,-4.25418806,17.98809307
175.20918186,-52.44805509,-48.35804784,34.39453342,-5.85800810,21.18451022
0.93185887,1.45713563,-1.28061955

>  <FORMUL>
      RAL    C28 H27 N1 O4 S1

>  <HET>
 RAL  A 600      34

>  <HETNAM>
     RAL RALOXIFENE

>  <Name>
RAL.pdb

>  <RI>
0

>  <Rbt.Current_Directory>
/home/malgorzata/Desktop/rDOCK_IFD/Wyniki/6_estrogen_receptor/IFD

>  <Rbt.Executable>
rbdock ($Id: //depot/dev/client3/rdock/2013.1/src/exe/rbdock.cxx#4 $)

>  <Rbt.Library>
libRbt.so (2013.1, Build901 2013/11/27)

>  <Rbt.Parameter_File>
/home/malgorzata/Desktop/rDock_2013.1_src/data/scripts/hard_docking.prm

>  <Rbt.Receptor>
cavity.prm

>  <SCORE>
-13.4571

>  <SCORE.INTER>
-12.5253

>  <SCORE.INTER.CONST>
1

>  <SCORE.INTER.POLAR>
-1.03953

>  <SCORE.INTER.REPUL>
0

>  <SCORE.INTER.ROT>
7

>  <SCORE.INTER.VDW>
-21.3909

>  <SCORE.INTER.norm>
-0.36839

>  <SCORE.INTRA>
-1.82931

>  <SCORE.INTRA.DIHEDRAL>
-4.38057

>  <SCORE.INTRA.DIHEDRAL.0>
18.358

>  <SCORE.INTRA.POLAR>
0

>  <SCORE.INTRA.POLAR.0>
0

>  <SCORE.INTRA.REPUL>
0

>  <SCORE.INTRA.REPUL.0>
0

>  <SCORE.INTRA.VDW>
0.360973

>  <SCORE.INTRA.VDW.0>
-1.94569

>  <SCORE.INTRA.norm>
-0.0538033

>  <SCORE.RESTR>
1.06787

>  <SCORE.RESTR.CAVITY>
1.06787

>  <SCORE.RESTR.norm>
0.0314081

>  <SCORE.SYSTEM>
-0.17038

>  <SCORE.SYSTEM.CONST>
0

>  <SCORE.SYSTEM.DIHEDRAL>
0.842849

>  <SCORE.SYSTEM.REPUL>
0.0160494

>  <SCORE.SYSTEM.VDW>
-0.672051

>  <SCORE.SYSTEM.norm>
-0.00501117

>  <SCORE.heavy>
34

>  <SCORE.norm>
-0.395796

$$$$
RAL.pdb
  rDOCK(R)          3D
libRbt.so/2013.1/901 2013/11/27
 36 40  0  0  0  0  0  0  0  0999 V2000
   36.5829   -3.1125   20.5727 C   0  0  0  0  0  0
   37.2522   -1.9245   20.4289 C   0  0  0  0  0  0
   38.1015   -1.6823   19.3855 C   0  0  0  0  0  0
   38.6867   -0.4416   19.3406 O   0  0  0  0  0  0
   38.2890   -2.6700   18.4118 C   0  0  0  0  0  0
   37.5905   -3.8451   18.5410 C   0  0  0  0  0  0
   37.6326   -5.2020   17.5985 S   0  0  0  0  0  0
   36.5037   -6.1203   18.4541 C   0  0  0  0  0  0
   36.1655   -7.5333   18.1213 C   0  0  0  0  0  0
   34.8414   -7.8815   18.3048 C   0  0  0  0  0  0
   34.4388   -9.1540   17.9330 C   0  0  0  0  0  0
   35.3353  -10.0752   17.4283 C   0  0  0  0  0  0
   34.8358  -11.3308   17.0777 O   0  0  0  0  0  0
   36.6465   -9.7109   17.2029 C   0  0  0  0  0  0
   37.0374   -8.4272   17.5632 C   0  0  0  0  0  0
   36.7249   -4.0768   19.6478 C   0  0  0  0  0  0
   36.1233   -5.4004   19.6063 C   0  0  0  0  0  0
   35.2748   -5.8598   20.5956 C   0  0  0  0  0  0
   35.2765   -7.0629   20.8852 O   0  0  0  0  0  0
   34.3487   -4.9816   21.3189 C   0  0  0  0  0  0
   34.7703   -4.2740   22.4266 C   0  0  0  0  0  0
   33.9201   -3.4503   23.1388 C   0  0  0  0  0  0
   32.5881   -3.3571   22.7393 C   0  0  0  0  0  0
   32.1563   -4.0554   21.6258 C   0  0  0  0  0  0
   33.0369   -4.8529   20.9141 C   0  0  0  0  0  0
   31.5748   -2.6271   23.2870 O   0  0  0  0  0  0
   31.8950   -1.3075   23.7006 C   0  0  0  0  0  0
   32.3029   -1.2975   25.1497 C   0  0  0  0  0  0
   33.4929   -1.8486   25.7690 N   0  0  0  0  0  0
   33.1654   -3.1732   26.3343 C   0  0  0  0  0  0
   34.3876   -3.9316   26.8901 C   0  0  0  0  0  0
   34.9515   -3.0807   28.0395 C   0  0  0  0  0  0
   35.4394   -1.7771   27.3358 C   0  0  0  0  0  0
   34.1866   -1.0586   26.8050 C   0  0  0  0  0  0
   38.3809    0.2414   19.9045 H   0  0  0  0  0  0
   33.9132  -11.4924   17.1054 H   0  0  0  0  0  0
  1  2  2  0  0  0
  1 16  1  0  0  0
  2  3  1  0  0  0
  3  4  1  0  0  0
  3  5  2  0  0  0
  4 35  1  0  0  0
  5  6  1  0  0  0
  6  7  1  0  0  0
  6 16  2  0  0  0
  7  8  1  0  0  0
  8  9  1  0  0  0
  8 17  2  0  0  0
  9 10  2  0  0  0
  9 15  1  0  0  0
 10 11  1  0  0  0
 11 12  2  0  0  0
 12 13  1  0  0  0
 12 14  1  0  0  0
 13 36  1  0  0  0
 14 15  2  0  0  0
 16 17  1  0  0  0
 17 18  1  0  0  0
 18 19  2  0  0  0
 18 20  1  0  0  0
 20 21  2  0  0  0
 20 25  1  0  0  0
 21 22  1  0  0  0
 22 23  2  0  0  0
 23 24  1  0  0  0
 23 26  1  0  0  0
 24 25  2  0  0  0
 26 27  1  0  0  0
 27 28  1  0  0  0
 28 29  1  0  0  0
 29 30  1  0  0  0
 29 34  1  0  0  0
 30 31  1  0  0  0
 31 32  1  0  0  0
 32 33  1  0  0  0
 33 34  1  0  0  0
M  END
>  <CHROM.0>
-110.33748598,-104.75817137,-61.80903000

>  <CHROM.1>
-11.42330691,-143.99377574,6.24841396,33.82086006,-85.27489571,41.61593599
-92.28326715,68.79863800,-97.75488481,35.22557833,-4.59713894,21.18623449
-1.95542916,-0.81388204,-2.47699874

>  <FORMUL>
      RAL    C28 H27 N1 O4 S1

>  <HET>
 RAL  A 600      34

>  <HETNAM>
     RAL RALOXIFENE

>  <Name>
RAL.pdb

>  <RI>
0

>  <Rbt.Current_Directory>
/home/malgorzata/Desktop/rDOCK_IFD/Wyniki/6_estrogen_receptor/IFD

>  <Rbt.Executable>
rbdock ($Id: //depot/dev/client3/rdock/2013.1/src/exe/rbdock.cxx#4 $)

>  <Rbt.Library>
libRbt.so (2013.1, Build901 2013/11/27)

>  <Rbt.Parameter_File>
/home/malgorzata/Desktop/rDock_2013.1_src/data/scripts/hard_docking.prm

>  <Rbt.Receptor>
cavity.prm

>  <SCORE>
-0.339804

>  <SCORE.INTER>
-6.01346

>  <SCORE.INTER.CONST>
1

>  <SCORE.INTER.POLAR>
0

>  <SCORE.INTER.REPUL>
0

>  <SCORE.INTER.ROT>
7

>  <SCORE.INTER.VDW>
-18.4135

>  <SCORE.INTER.norm>
-0.176867

>  <SCORE.INTRA>
5.26629

>  <SCORE.INTRA.DIHEDRAL>
11.4842

>  <SCORE.INTRA.DIHEDRAL.0>
18.358

>  <SCORE.INTRA.POLAR>
0

>  <SCORE.INTRA.POLAR.0>
0

>  <SCORE.INTRA.REPUL>
0

>  <SCORE.INTRA.REPUL.0>
0

>  <SCORE.INTRA.VDW>
-0.47579

>  <SCORE.INTRA.VDW.0>
-1.94569

>  <SCORE.INTRA.norm>
0.154891

>  <SCORE.RESTR>
1.08726

>  <SCORE.RESTR.CAVITY>
1.08726

>  <SCORE.RESTR.norm>
0.0319782

>  <SCORE.SYSTEM>
-0.679883

>  <SCORE.SYSTEM.CONST>
0

>  <SCORE.SYSTEM.DIHEDRAL>
0.860496

>  <SCORE.SYSTEM.VDW>
-1.11013

>  <SCORE.SYSTEM.norm>
-0.0199966

>  <SCORE.heavy>
34

>  <SCORE.norm>
-0.00999424

$$$$
RAL.pdb
  rDOCK(R)          3D
libRbt.so/2013.1/901 2013/11/27
 36 40  0  0  0  0  0  0  0  0999 V2000
   36.4386   -4.3212   16.4310 C   0  0  0  0  0  0
   37.1364   -3.6183   15.4829 C   0  0  0  0  0  0
   38.4879   -3.4271   15.5580 C   0  0  0  0  0  0
   39.0714   -2.7308   14.5292 O   0  0  0  0  0  0
   39.1992   -3.9802   16.6290 C   0  0  0  0  0  0
   38.5018   -4.7125   17.5579 C   0  0  0  0  0  0
   39.0386   -5.4397   18.9415 S   0  0  0  0  0  0
   37.5677   -6.0908   19.4534 C   0  0  0  0  0  0
   37.3900   -6.8176   20.7426 C   0  0  0  0  0  0
   36.1272   -7.3340   20.9591 C   0  0  0  0  0  0
   35.9148   -8.0958   22.0966 C   0  0  0  0  0  0
   36.9192   -8.3082   23.0202 C   0  0  0  0  0  0
   36.6117   -9.0925   24.1333 O   0  0  0  0  0  0
   38.1908   -7.8308   22.7795 C   0  0  0  0  0  0
   38.3987   -7.0820   21.6277 C   0  0  0  0  0  0
   37.0909   -4.8814   17.4636 C   0  0  0  0  0  0
   36.5550   -5.6530   18.5740 C   0  0  0  0  0  0
   35.2050   -5.9140   18.7116 C   0  0  0  0  0  0
   34.5897   -5.4343   19.6720 O   0  0  0  0  0  0
   34.4585   -6.7556   17.7700 C   0  0  0  0  0  0
   33.7385   -7.8447   18.2181 C   0  0  0  0  0  0
   33.0371   -8.6659   17.3566 C   0  0  0  0  0  0
   33.0851   -8.3987   15.9895 C   0  0  0  0  0  0
   33.7969   -7.3051   15.5298 C   0  0  0  0  0  0
   34.4688   -6.4826   16.4185 C   0  0  0  0  0  0
   32.4909   -9.0681   14.9608 O   0  0  0  0  0  0
   31.5024  -10.0242   15.3128 C   0  0  0  0  0  0
   30.3499   -9.3529   16.0109 C   0  0  0  0  0  0
   29.4064   -8.3813   15.4919 N   0  0  0  0  0  0
   29.0292   -7.4560   16.5794 C   0  0  0  0  0  0
   28.1440   -6.2810   16.1173 C   0  0  0  0  0  0
   26.8413   -6.8935   15.5780 C   0  0  0  0  0  0
   27.2992   -7.7068   14.3284 C   0  0  0  0  0  0
   28.1722   -8.8649   14.8426 C   0  0  0  0  0  0
   38.5364   -2.3177   13.8802 H   0  0  0  0  0  0
   35.7175   -9.2781   24.3431 H   0  0  0  0  0  0
  1  2  2  0  0  0
  1 16  1  0  0  0
  2  3  1  0  0  0
  3  4  1  0  0  0
  3  5  2  0  0  0
  4 35  1  0  0  0
  5  6  1  0  0  0
  6  7  1  0  0  0
  6 16  2  0  0  0
  7  8  1  0  0  0
  8  9  1  0  0  0
  8 17  2  0  0  0
  9 10  2  0  0  0
  9 15  1  0  0  0
 10 11  1  0  0  0
 11 12  2  0  0  0
 12 13  1  0  0  0
 12 14  1  0  0  0
 13 36  1  0  0  0
 14 15  2  0  0  0
 16 17  1  0  0  0
 17 18  1  0  0  0
 18 19  2  0  0  0
 18 20  1  0  0  0
 20 21  2  0  0  0
 20 25  1  0  0  0
 21 22  1  0  0  0
 22 23  2  0  0  0
 23 24  1  0  0  0
 23 26  1  0  0  0
 24 25  2  0  0  0
 26 27  1  0  0  0
 27 28  1  0  0  0
 28 29  1  0  0  0
 29 30  1  0  0  0
 29 34  1  0  0  0
 30 31  1  0  0  0
 31 32  1  0  0  0
 32 33  1  0  0  0
 33 34  1  0  0  0
M  END
>  <CHROM.0>
-45.09228854,-115.45674276,-61.80903000

>  <CHROM.1>
7.91964882,-177.03079735,-14.80587388,65.79795430,124.99621321,12.23641909
62.24690658,65.10389630,-146.57700567,34.61891538,-6.74669369,17.80246240
-0.25638089,-0.41729983,-1.07096254

>  <FORMUL>
      RAL    C28 H27 N1 O4 S1

>  <HET>
 RAL  A 600      34

>  <HETNAM>
     RAL RALOXIFENE

>  <Name>
RAL.pdb

>  <RI>
0

>  <Rbt.Current_Directory>
/home/malgorzata/Desktop/rDOCK_IFD/Wyniki/6_estrogen_receptor/IFD

>  <Rbt.Executable>
rbdock ($Id: //depot/dev/client3/rdock/2013.1/src/exe/rbdock.cxx#4 $)

>  <Rbt.Library>
libRbt.so (2013.1, Build901 2013/11/27)

>  <Rbt.Parameter_File>
/home/malgorzata/Desktop/rDock_2013.1_src/data/scripts/hard_docking.prm

>  <Rbt.Receptor>
cavity.prm

>  <SCORE>
-0.882338

>  <SCORE.INTER>
-10.4874

>  <SCORE.INTER.CONST>
1

>  <SCORE.INTER.POLAR>
-0.848528

>  <SCORE.INTER.REPUL>
0

>  <SCORE.INTER.ROT>
7

>  <SCORE.INTER.VDW>
-20.0024

>  <SCORE.INTER.norm>
-0.308454

>  <SCORE.INTRA>
2.45447

>  <SCORE.INTRA.DIHEDRAL>
1.77418

>  <SCORE.INTRA.DIHEDRAL.0>
18.358

>  <SCORE.INTRA.POLAR>
0

>  <SCORE.INTRA.POLAR.0>
0

>  <SCORE.INTRA.REPUL>
0

>  <SCORE.INTRA.REPUL.0>
0

>  <SCORE.INTRA.VDW>
1.56738

>  <SCORE.INTRA.VDW.0>
-1.94569

>  <SCORE.INTRA.norm>
0.0721903

>  <SCORE.RESTR>
8.36143

>  <SCORE.RESTR.CAVITY>
8.36143

>  <SCORE.RESTR.norm>
0.245925

>  <SCORE.SYSTEM>
-1.21082

>  <SCORE.SYSTEM.CONST>
0

>  <SCORE.SYSTEM.DIHEDRAL>
0.823509

>  <SCORE.SYSTEM.POLAR>
-0.176541

>  <SCORE.SYSTEM.VDW>
-1.02233

>  <SCORE.SYSTEM.norm>
-0.0356122

>  <SCORE.heavy>
34

>  <SCORE.norm>
-0.0259511

$$$$
RAL.pdb
  rDOCK(R)          3D
libRbt.so/2013.1/901 2013/11/27
 36 40  0  0  0  0  0  0  0  0999 V2000
   37.8718   -1.8690   19.6240 C   0  0  0  0  0  0
   38.3640   -0.7147   19.0715 C   0  0  0  0  0  0
   38.8310   -0.6566   17.7880 C   0  0  0  0  0  0
   39.2693    0.5663   17.3450 O   0  0  0  0  0  0
   38.7936   -1.8078   16.9929 C   0  0  0  0  0  0
   38.2681   -2.9529   17.5388 C   0  0  0  0  0  0
   38.1329   -4.4639   16.8832 S   0  0  0  0  0  0
   37.3996   -5.2282   18.1977 C   0  0  0  0  0  0
   37.0946   -6.6866   18.2405 C   0  0  0  0  0  0
   36.2969   -7.0914   19.2931 C   0  0  0  0  0  0
   35.9021   -8.4184   19.3461 C   0  0  0  0  0  0
   36.3209   -9.3335   18.4005 C   0  0  0  0  0  0
   35.8680  -10.6472   18.5347 O   0  0  0  0  0  0
   37.0789   -8.9181   17.3256 C   0  0  0  0  0  0
   37.4561   -7.5818   17.2717 C   0  0  0  0  0  0
   37.8041   -2.9890   18.8847 C   0  0  0  0  0  0
   37.3308   -4.3102   19.2668 C   0  0  0  0  0  0
   36.8661   -4.5919   20.5374 C   0  0  0  0  0  0
   37.4355   -5.4583   21.2129 O   0  0  0  0  0  0
   35.7058   -3.9152   21.1272 C   0  0  0  0  0  0
   35.4021   -4.0757   22.4641 C   0  0  0  0  0  0
   34.3088   -3.4648   23.0470 C   0  0  0  0  0  0
   33.4724   -2.6862   22.2489 C   0  0  0  0  0  0
   33.7715   -2.5118   20.9094 C   0  0  0  0  0  0
   34.8895   -3.1140   20.3571 C   0  0  0  0  0  0
   32.3433   -2.0045   22.5949 O   0  0  0  0  0  0
   31.9535   -2.0726   23.9581 C   0  0  0  0  0  0
   30.6603   -1.3317   24.1705 C   0  0  0  0  0  0
   29.8916   -1.1636   25.3888 N   0  0  0  0  0  0
   30.6212   -0.2484   26.2895 C   0  0  0  0  0  0
   29.8345    0.1318   27.5601 C   0  0  0  0  0  0
   29.5980   -1.1712   28.3408 C   0  0  0  0  0  0
   28.6744   -2.0074   27.4025 C   0  0  0  0  0  0
   29.5049   -2.3631   26.1571 C   0  0  0  0  0  0
   39.5714    0.6646   16.4635 H   0  0  0  0  0  0
   35.2864  -10.8732   19.2338 H   0  0  0  0  0  0
  1  2  2  0  0  0
  1 16  1  0  0  0
  2  3  1  0  0  0
  3  4  1  0  0  0
  3  5  2  0  0  0
  4 35  1  0  0  0
  5  6  1  0  0  0
  6  7  1  0  0  0
  6 16  2  0  0  0
  7  8  1  0  0  0
  8  9  1  0  0  0
  8 17  2  0  0  0
  9 10  2  0  0  0
  9 15  1  0  0  0
 10 11  1  0  0  0
 11 12  2  0  0  0
 12 13  1  0  0  0
 12 14  1  0  0  0
 13 36  1  0  0  0
 14 15  2  0  0  0
 16 17  1  0  0  0
 17 18  1  0  0  0
 18 19  2  0  0  0
 18 20  1  0  0  0
 20 21  2  0  0  0
 20 25  1  0  0  0
 21 22  1  0  0  0
 22 23  2  0  0  0
 23 24  1  0  0  0
 23 26  1  0  0  0
 24 25  2  0  0  0
 26 27  1  0  0  0
 27 28  1  0  0  0
 28 29  1  0  0  0
 29 30  1  0  0  0
 29 34  1  0  0  0
 30 31  1  0  0  0
 31 32  1  0  0  0
 32 33  1  0  0  0
 33 34  1  0  0  0
M  END
>  <CHROM.0>
-45.32052988,-112.38592531,-61.80903000

>  <CHROM.1>
-177.91854760,-169.58114517,1.46441593,60.57016817,-169.95194876,0.69835463
-177.20773347,178.83292030,71.21012355,35.12616983,-3.68149373,20.91309961
-0.48166168,0.77293976,0.18817213

>  <FORMUL>
      RAL    C28 H27 N1 O4 S1

>  <HET>
 RAL  A 600      34

>  <HETNAM>
     RAL RALOXIFENE

>  <Name>
RAL.pdb

>  <RI>
0

>  <Rbt.Current_Directory>
/home/malgorzata/Desktop/rDOCK_IFD/Wyniki/6_estrogen_receptor/IFD

>  <Rbt.Executable>
rbdock ($Id: //depot/dev/client3/rdock/2013.1/src/exe/rbdock.cxx#4 $)

>  <Rbt.Library>
libRbt.so (2013.1, Build901 2013/11/27)

>  <Rbt.Parameter_File>
/home/malgorzata/Desktop/rDock_2013.1_src/data/scripts/hard_docking.prm

>  <Rbt.Receptor>
cavity.prm

>  <SCORE>
-11.3669

>  <SCORE.INTER>
-9.57263

>  <SCORE.INTER.CONST>
1

>  <SCORE.INTER.POLAR>
0

>  <SCORE.INTER.REPUL>
0

>  <SCORE.INTER.ROT>
7

>  <SCORE.INTER.VDW>
-21.9726

>  <SCORE.INTER.norm>
-0.281548

>  <SCORE.INTRA>
-2.85465

>  <SCORE.INTRA.DIHEDRAL>
-8.29144

>  <SCORE.INTRA.DIHEDRAL.0>
18.358

>  <SCORE.INTRA.POLAR>
0

>  <SCORE.INTRA.POLAR.0>
0

>  <SCORE.INTRA.REPUL>
0

>  <SCORE.INTRA.REPUL.0>
0

>  <SCORE.INTRA.VDW>
1.29107

>  <SCORE.INTRA.VDW.0>
-1.94569

>  <SCORE.INTRA.norm>
-0.0839603

>  <SCORE.RESTR>
2.27471

>  <SCORE.RESTR.CAVITY>
2.27471

>  <SCORE.RESTR.norm>
0.0669032

>  <SCORE.SYSTEM>
-1.21436

>  <SCORE.SYSTEM.CONST>
0

>  <SCORE.SYSTEM.DIHEDRAL>
0.824239

>  <SCORE.SYSTEM.POLAR>
-0.176193

>  <SCORE.SYSTEM.VDW>
-1.02742

>  <SCORE.SYSTEM.norm>
-0.0357164

>  <SCORE.heavy>
34

>  <SCORE.norm>
-0.334321

$$$$
RAL.pdb
  rDOCK(R)          3D
libRbt.so/2013.1/901 2013/11/27
 36 40  0  0  0  0  0  0  0  0999 V2000
   36.7656   -7.0106   22.2943 C   0  0  0  0  0  0
   37.7647   -7.5325   23.0748 C   0  0  0  0  0  0
   38.5663   -8.5563   22.6530 C   0  0  0  0  0  0
   39.5493   -8.9678   23.5181 O   0  0  0  0  0  0
   38.3812   -9.0876   21.3716 C   0  0  0  0  0  0
   37.4022   -8.5391   20.5802 C   0  0  0  0  0  0
   36.9125   -8.9716   19.0622 S   0  0  0  0  0  0
   35.7044   -7.8096   18.8625 C   0  0  0  0  0  0
   34.8092   -7.7446   17.6725 C   0  0  0  0  0  0
   35.1550   -8.5802   16.6283 C   0  0  0  0  0  0
   34.3179   -8.6353   15.5257 C   0  0  0  0  0  0
   33.1849   -7.8505   15.4407 C   0  0  0  0  0  0
   32.4010   -7.9778   14.2925 O   0  0  0  0  0  0
   32.8168   -7.0516   16.5033 C   0  0  0  0  0  0
   33.6537   -7.0155   17.6120 C   0  0  0  0  0  0
   36.5705   -7.4838   21.0520 C   0  0  0  0  0  0
   35.5760   -7.0870   20.0675 C   0  0  0  0  0  0
   34.6366   -6.1048   20.3177 C   0  0  0  0  0  0
   33.6662   -6.3641   21.0403 O   0  0  0  0  0  0
   34.7269   -4.7556   19.7488 C   0  0  0  0  0  0
   34.2473   -3.6647   20.4454 C   0  0  0  0  0  0
   34.3035   -2.3834   19.9321 C   0  0  0  0  0  0
   34.8358   -2.1955   18.6577 C   0  0  0  0  0  0
   35.3269   -3.2805   17.9537 C   0  0  0  0  0  0
   35.2827   -4.5507   18.5036 C   0  0  0  0  0  0
   34.9825   -1.0402   17.9485 O   0  0  0  0  0  0
   35.6050    0.0432   18.6221 C   0  0  0  0  0  0
   37.1031   -0.0879   18.5517 C   0  0  0  0  0  0
   37.9414   -1.2122   18.9214 N   0  0  0  0  0  0
   38.0894   -2.1007   17.7510 C   0  0  0  0  0  0
   39.0843   -3.2582   17.9707 C   0  0  0  0  0  0
   38.5204   -4.1152   19.1156 C   0  0  0  0  0  0
   38.5653   -3.1650   20.3516 C   0  0  0  0  0  0
   37.5561   -2.0346   20.0848 C   0  0  0  0  0  0
   40.1678   -9.6183   23.2493 H   0  0  0  0  0  0
   32.6730   -8.5480   13.6004 H   0  0  0  0  0  0
  1  2  2  0  0  0
  1 16  1  0  0  0
  2  3  1  0  0  0
  3  4  1  0  0  0
  3  5  2  0  0  0
  4 35  1  0  0  0
  5  6  1  0  0  0
  6  7  1  0  0  0
  6 16  2  0  0  0
  7  8  1  0  0  0
  8  9  1  0  0  0
  8 17  2  0  0  0
  9 10  2  0  0  0
  9 15  1  0  0  0
 10 11  1  0  0  0
 11 12  2  0  0  0
 12 13  1  0  0  0
 12 14  1  0  0  0
 13 36  1  0  0  0
 14 15  2  0  0  0
 16 17  1  0  0  0
 17 18  1  0  0  0
 18 19  2  0  0  0
 18 20  1  0  0  0
 20 21  2  0  0  0
 20 25  1  0  0  0
 21 22  1  0  0  0
 22 23  2  0  0  0
 23 24  1  0  0  0
 23 26  1  0  0  0
 24 25  2  0  0  0
 26 27  1  0  0  0
 27 28  1  0  0  0
 28 29  1  0  0  0
 29 30  1  0  0  0
 29 34  1  0  0  0
 30 31  1  0  0  0
 31 32  1  0  0  0
 32 33  1  0  0  0
 33 34  1  0  0  0
M  END
>  <CHROM.0>
-48.16132534,-105.18916595,-61.80903000

>  <CHROM.1>
-175.09641127,-9.37581202,-2.88129933,104.55799101,-147.98211187,50.06610962
83.29665210,-53.12422829,88.89495274,36.05638867,-5.55934211,19.16144810
-1.58671523,-0.85487511,-0.15852027

>  <FORMUL>
      RAL    C28 H27 N1 O4 S1

>  <HET>
 RAL  A 600      34

>  <HETNAM>
     RAL RALOXIFENE

>  <Name>
RAL.pdb

>  <RI>
0

>  <Rbt.Current_Directory>
/home/malgorzata/Desktop/rDOCK_IFD/Wyniki/6_estrogen_receptor/IFD

>  <Rbt.Executable>
rbdock ($Id: //depot/dev/client3/rdock/2013.1/src/exe/rbdock.cxx#4 $)

>  <Rbt.Library>
libRbt.so (2013.1, Build901 2013/11/27)

>  <Rbt.Parameter_File>
/home/malgorzata/Desktop/rDock_2013.1_src/data/scripts/hard_docking.prm

>  <Rbt.Receptor>
cavity.prm

>  <SCORE>
-6.21668

>  <SCORE.INTER>
-4.95693

>  <SCORE.INTER.CONST>
1

>  <SCORE.INTER.POLAR>
0

>  <SCORE.INTER.REPUL>
0

>  <SCORE.INTER.ROT>
7

>  <SCORE.INTER.VDW>
-17.3569

>  <SCORE.INTER.norm>
-0.145792

>  <SCORE.INTRA>
-1.26175

>  <SCORE.INTRA.DIHEDRAL>
2.76621

>  <SCORE.INTRA.DIHEDRAL.0>
18.358

>  <SCORE.INTRA.POLAR>
0

>  <SCORE.INTRA.POLAR.0>
0

>  <SCORE.INTRA.REPUL>
0

>  <SCORE.INTRA.REPUL.0>
0

>  <SCORE.INTRA.VDW>
-2.64486

>  <SCORE.INTRA.VDW.0>
-1.94569

>  <SCORE.INTRA.norm>
-0.0371104

>  <SCORE.RESTR>
1.1858

>  <SCORE.RESTR.CAVITY>
1.1858

>  <SCORE.RESTR.norm>
0.0348765

>  <SCORE.SYSTEM>
-1.1838

>  <SCORE.SYSTEM.CONST>
0

>  <SCORE.SYSTEM.DIHEDRAL>
0.828222

>  <SCORE.SYSTEM.POLAR>
-0.161656

>  <SCORE.SYSTEM.VDW>
-1.04829

>  <SCORE.SYSTEM.norm>
-0.0348178

>  <SCORE.heavy>
34

>  <SCORE.norm>
-0.182844

$$$$
