RAL.pdb
  rDOCK(R)          3D
libRbt.so/2013.1/901 2013/11/27
 36 40  0  0  0  0  0  0  0  0999 V2000
   25.8049   -1.4656   27.8245 C   0  0  0  0  0  0
   24.4564   -1.5791   27.6038 C   0  0  0  0  0  0
   23.6026   -0.5175   27.7161 C   0  0  0  0  0  0
   22.2796   -0.7570   27.4397 O   0  0  0  0  0  0
   24.1151    0.7411   28.0508 C   0  0  0  0  0  0
   25.4705    0.8577   28.2372 C   0  0  0  0  0  0
   26.3607    2.1771   28.6820 S   0  0  0  0  0  0
   27.8841    1.4500   28.6716 C   0  0  0  0  0  0
   29.1345    2.1457   29.0893 C   0  0  0  0  0  0
   28.9557    3.4008   29.6376 C   0  0  0  0  0  0
   30.0666    4.0684   30.1274 C   0  0  0  0  0  0
   31.3323    3.5231   30.0396 C   0  0  0  0  0  0
   32.3897    4.2684   30.5642 O   0  0  0  0  0  0
   31.5026    2.2510   29.5340 C   0  0  0  0  0  0
   30.3804    1.5822   29.0606 C   0  0  0  0  0  0
   26.3346   -0.2692   28.1302 C   0  0  0  0  0  0
   27.7204    0.0735   28.4091 C   0  0  0  0  0  0
   28.7326   -0.8673   28.3991 C   0  0  0  0  0  0
   28.8266   -1.6666   29.3391 O   0  0  0  0  0  0
   29.7237   -0.9565   27.3213 C   0  0  0  0  0  0
   30.7152   -1.9164   27.3548 C   0  0  0  0  0  0
   31.6723   -2.0180   26.3639 C   0  0  0  0  0  0
   31.6491   -1.1014   25.3142 C   0  0  0  0  0  0
   30.6552   -0.1401   25.2660 C   0  0  0  0  0  0
   29.6919   -0.0781   26.2589 C   0  0  0  0  0  0
   32.4865   -0.9989   24.2429 O   0  0  0  0  0  0
   33.8381   -0.6680   24.5233 C   0  0  0  0  0  0
   34.6249   -0.5527   23.2450 C   0  0  0  0  0  0
   36.0392   -0.2886   23.0619 N   0  0  0  0  0  0
   36.2615    0.1744   21.6772 C   0  0  0  0  0  0
   37.7070    0.6338   21.3996 C   0  0  0  0  0  0
   38.6098   -0.5920   21.6126 C   0  0  0  0  0  0
   38.4600   -0.9076   23.1327 C   0  0  0  0  0  0
   37.0073   -1.3635   23.3547 C   0  0  0  0  0  0
   22.0031   -1.6132   27.1780 H   0  0  0  0  0  0
   32.2182    5.0713   31.0160 H   0  0  0  0  0  0
  1  2  2  0  0  0
  1 16  1  0  0  0
  2  3  1  0  0  0
  3  4  1  0  0  0
  3  5  2  0  0  0
  4 35  1  0  0  0
  5  6  1  0  0  0
  6  7  1  0  0  0
  6 16  2  0  0  0
  7  8  1  0  0  0
  8  9  1  0  0  0
  8 17  2  0  0  0
  9 10  2  0  0  0
  9 15  1  0  0  0
 10 11  1  0  0  0
 11 12  2  0  0  0
 12 13  1  0  0  0
 12 14  1  0  0  0
 13 36  1  0  0  0
 14 15  2  0  0  0
 16 17  1  0  0  0
 17 18  1  0  0  0
 18 19  2  0  0  0
 18 20  1  0  0  0
 20 21  2  0  0  0
 20 25  1  0  0  0
 21 22  1  0  0  0
 22 23  2  0  0  0
 23 24  1  0  0  0
 23 26  1  0  0  0
 24 25  2  0  0  0
 26 27  1  0  0  0
 27 28  1  0  0  0
 28 29  1  0  0  0
 29 30  1  0  0  0
 29 34  1  0  0  0
 30 31  1  0  0  0
 31 32  1  0  0  0
 32 33  1  0  0  0
 33 34  1  0  0  0
M  END
>  <CHROM.0>
-70.16320032,-141.92298997,67.25353973,-68.33526229

>  <CHROM.1>
-0.76454018,6.97606189,4.82669388,105.99807127,-179.85968612,-64.99459417
-178.36573133,-177.19754581,-161.23494949,30.36525231,0.32101320,26.80173686
2.73592030,0.28218350,0.81952936

>  <FORMUL>
      RAL    C28 H27 N1 O4 S1

>  <HET>
 RAL  A 600      34

>  <HETNAM>
     RAL RALOXIFENE

>  <Name>
RAL.pdb

>  <RI>
0

>  <Rbt.Current_Directory>
/home/malgorzata/Desktop/rDOCK_IFD/Wyniki/6_estrogen_receptor/IFD

>  <Rbt.Executable>
rbdock ($Id: //depot/dev/client3/rdock/2013.1/src/exe/rbdock.cxx#4 $)

>  <Rbt.Library>
libRbt.so (2013.1, Build901 2013/11/27)

>  <Rbt.Parameter_File>
/home/malgorzata/Desktop/rDock_2013.1_src/data/scripts/dock.prm

>  <Rbt.Receptor>
cavity.prm

>  <SCORE>
-23.0825

>  <SCORE.INTER>
-17.6199

>  <SCORE.INTER.CONST>
1

>  <SCORE.INTER.POLAR>
-0.564246

>  <SCORE.INTER.REPUL>
0

>  <SCORE.INTER.ROT>
7

>  <SCORE.INTER.VDW>
-28.1015

>  <SCORE.INTER.norm>
-0.518233

>  <SCORE.INTRA>
-1.96601

>  <SCORE.INTRA.DIHEDRAL>
-2.90859

>  <SCORE.INTRA.DIHEDRAL.0>
18.358

>  <SCORE.INTRA.POLAR>
0

>  <SCORE.INTRA.POLAR.0>
0

>  <SCORE.INTRA.REPUL>
0

>  <SCORE.INTRA.REPUL.0>
0

>  <SCORE.INTRA.VDW>
-0.511717

>  <SCORE.INTRA.VDW.0>
-1.94569

>  <SCORE.INTRA.norm>
-0.0578239

>  <SCORE.RESTR>
0

>  <SCORE.RESTR.CAVITY>
0

>  <SCORE.RESTR.norm>
0

>  <SCORE.SYSTEM>
-3.49657

>  <SCORE.SYSTEM.CONST>
0

>  <SCORE.SYSTEM.DIHEDRAL>
1.46212

>  <SCORE.SYSTEM.POLAR>
-0.812136

>  <SCORE.SYSTEM.REPUL>
0.0119541

>  <SCORE.SYSTEM.VDW>
-1.52614

>  <SCORE.SYSTEM.norm>
-0.10284

>  <SCORE.heavy>
34

>  <SCORE.norm>
-0.678897

$$$$
RAL.pdb
  rDOCK(R)          3D
libRbt.so/2013.1/901 2013/11/27
 36 40  0  0  0  0  0  0  0  0999 V2000
   25.4553   -1.6652   27.7091 C   0  0  0  0  0  0
   24.1015   -1.6800   27.4928 C   0  0  0  0  0  0
   23.3301   -0.5558   27.5925 C   0  0  0  0  0  0
   21.9920   -0.6988   27.3223 O   0  0  0  0  0  0
   23.9368    0.6651   27.9091 C   0  0  0  0  0  0
   25.2977    0.6820   28.0911 C   0  0  0  0  0  0
   26.2859    1.9366   28.5162 S   0  0  0  0  0  0
   27.7503    1.0969   28.5123 C   0  0  0  0  0  0
   29.0507    1.7022   28.9179 C   0  0  0  0  0  0
   29.0247    3.0666   29.1317 C   0  0  0  0  0  0
   30.1767    3.6814   29.5949 C   0  0  0  0  0  0
   31.3407    2.9681   29.8032 C   0  0  0  0  0  0
   32.4494    3.6733   30.2750 O   0  0  0  0  0  0
   31.3517    1.5993   29.6334 C   0  0  0  0  0  0
   30.1868    0.9889   29.1848 C   0  0  0  0  0  0
   26.0744   -0.5080   27.9974 C   0  0  0  0  0  0
   27.4829   -0.2668   28.2688 C   0  0  0  0  0  0
   28.4215   -1.2810   28.2694 C   0  0  0  0  0  0
   28.3239   -2.1968   29.0959 O   0  0  0  0  0  0
   29.5519   -1.3180   27.3350 C   0  0  0  0  0  0
   30.5476   -2.2640   27.4724 C   0  0  0  0  0  0
   31.6327   -2.3169   26.6190 C   0  0  0  0  0  0
   31.7352   -1.3643   25.6067 C   0  0  0  0  0  0
   30.7391   -0.4164   25.4546 C   0  0  0  0  0  0
   29.6484   -0.4033   26.3078 C   0  0  0  0  0  0
   32.7088   -1.2122   24.6641 O   0  0  0  0  0  0
   33.9142   -1.9315   24.8750 C   0  0  0  0  0  0
   34.7226   -1.9820   23.6060 C   0  0  0  0  0  0
   34.3794   -2.5698   22.3254 N   0  0  0  0  0  0
   33.5134   -1.6289   21.5865 C   0  0  0  0  0  0
   33.2015   -2.0731   20.1432 C   0  0  0  0  0  0
   32.4353   -3.4019   20.2448 C   0  0  0  0  0  0
   33.4735   -4.3861   20.8663 C   0  0  0  0  0  0
   33.7459   -3.9027   22.3014 C   0  0  0  0  0  0
   21.6351   -1.5499   27.1603 H   0  0  0  0  0  0
   33.2659    3.2317   30.4027 H   0  0  0  0  0  0
  1  2  2  0  0  0
  1 16  1  0  0  0
  2  3  1  0  0  0
  3  4  1  0  0  0
  3  5  2  0  0  0
  4 35  1  0  0  0
  5  6  1  0  0  0
  6  7  1  0  0  0
  6 16  2  0  0  0
  7  8  1  0  0  0
  8  9  1  0  0  0
  8 17  2  0  0  0
  9 10  2  0  0  0
  9 15  1  0  0  0
 10 11  1  0  0  0
 11 12  2  0  0  0
 12 13  1  0  0  0
 12 14  1  0  0  0
 13 36  1  0  0  0
 14 15  2  0  0  0
 16 17  1  0  0  0
 17 18  1  0  0  0
 18 19  2  0  0  0
 18 20  1  0  0  0
 20 21  2  0  0  0
 20 25  1  0  0  0
 21 22  1  0  0  0
 22 23  2  0  0  0
 23 24  1  0  0  0
 23 26  1  0  0  0
 24 25  2  0  0  0
 26 27  1  0  0  0
 27 28  1  0  0  0
 28 29  1  0  0  0
 29 30  1  0  0  0
 29 34  1  0  0  0
 30 31  1  0  0  0
 31 32  1  0  0  0
 32 33  1  0  0  0
 33 34  1  0  0  0
M  END
>  <CHROM.0>
-106.07790778,126.04991539,66.77905271,-104.55586779

>  <CHROM.1>
5.61258024,-8.47133999,-178.00485817,117.75313230,172.44692805,-13.89910792
164.16371372,-61.58531314,80.77011904,29.58582080,-0.46400326,26.56262202
2.40403008,0.17192362,0.89210050

>  <FORMUL>
      RAL    C28 H27 N1 O4 S1

>  <HET>
 RAL  A 600      34

>  <HETNAM>
     RAL RALOXIFENE

>  <Name>
RAL.pdb

>  <RI>
0

>  <Rbt.Current_Directory>
/home/malgorzata/Desktop/rDOCK_IFD/Wyniki/6_estrogen_receptor/IFD

>  <Rbt.Executable>
rbdock ($Id: //depot/dev/client3/rdock/2013.1/src/exe/rbdock.cxx#4 $)

>  <Rbt.Library>
libRbt.so (2013.1, Build901 2013/11/27)

>  <Rbt.Parameter_File>
/home/malgorzata/Desktop/rDock_2013.1_src/data/scripts/dock.prm

>  <Rbt.Receptor>
cavity.prm

>  <SCORE>
-23.567

>  <SCORE.INTER>
-16.3657

>  <SCORE.INTER.CONST>
1

>  <SCORE.INTER.POLAR>
-0.619785

>  <SCORE.INTER.REPUL>
0

>  <SCORE.INTER.ROT>
7

>  <SCORE.INTER.VDW>
-26.6585

>  <SCORE.INTER.norm>
-0.481345

>  <SCORE.INTRA>
-3.3971

>  <SCORE.INTRA.DIHEDRAL>
-6.97195

>  <SCORE.INTRA.DIHEDRAL.0>
18.358

>  <SCORE.INTRA.POLAR>
0

>  <SCORE.INTRA.POLAR.0>
0

>  <SCORE.INTRA.REPUL>
0

>  <SCORE.INTRA.REPUL.0>
0

>  <SCORE.INTRA.VDW>
0.088871

>  <SCORE.INTRA.VDW.0>
-1.94569

>  <SCORE.INTRA.norm>
-0.0999148

>  <SCORE.RESTR>
0

>  <SCORE.RESTR.CAVITY>
0

>  <SCORE.RESTR.norm>
0

>  <SCORE.SYSTEM>
-3.80415

>  <SCORE.SYSTEM.CONST>
0

>  <SCORE.SYSTEM.DIHEDRAL>
1.4289

>  <SCORE.SYSTEM.POLAR>
-0.809287

>  <SCORE.SYSTEM.VDW>
-1.76702

>  <SCORE.SYSTEM.norm>
-0.111887

>  <SCORE.heavy>
34

>  <SCORE.norm>
-0.693147

$$$$
RAL.pdb
  rDOCK(R)          3D
libRbt.so/2013.1/901 2013/11/27
 36 40  0  0  0  0  0  0  0  0999 V2000
   28.3249   -2.0171   27.7276 C   0  0  0  0  0  0
   27.1301   -2.5735   27.3499 C   0  0  0  0  0  0
   25.9542   -1.8772   27.3802 C   0  0  0  0  0  0
   24.8326   -2.5399   26.9481 O   0  0  0  0  0  0
   25.9606   -0.5400   27.7935 C   0  0  0  0  0  0
   27.1644    0.0237   28.1380 C   0  0  0  0  0  0
   27.4904    1.5412   28.7055 S   0  0  0  0  0  0
   29.1639    1.3823   28.8598 C   0  0  0  0  0  0
   30.0449    2.4400   29.4316 C   0  0  0  0  0  0
   29.4125    3.3548   30.2509 C   0  0  0  0  0  0
   30.1856    4.3133   30.8857 C   0  0  0  0  0  0
   31.5494    4.3901   30.6823 C   0  0  0  0  0  0
   32.2451    5.3871   31.3686 O   0  0  0  0  0  0
   32.1852    3.4480   29.9007 C   0  0  0  0  0  0
   31.4038    2.4802   29.2815 C   0  0  0  0  0  0
   28.3720   -0.7307   28.1130 C   0  0  0  0  0  0
   29.5161    0.0501   28.5568 C   0  0  0  0  0  0
   30.7871   -0.4844   28.6485 C   0  0  0  0  0  0
   31.4278   -0.3479   29.6983 O   0  0  0  0  0  0
   31.4288   -1.2026   27.5419 C   0  0  0  0  0  0
   32.4245   -2.1269   27.7864 C   0  0  0  0  0  0
   33.0590   -2.8093   26.7666 C   0  0  0  0  0  0
   32.6989   -2.5306   25.4492 C   0  0  0  0  0  0
   31.6967   -1.6121   25.1927 C   0  0  0  0  0  0
   31.0583   -0.9622   26.2357 C   0  0  0  0  0  0
   33.1879   -3.0628   24.2929 O   0  0  0  0  0  0
   32.3178   -3.9221   23.5721 C   0  0  0  0  0  0
   32.9842   -4.4041   22.3112 C   0  0  0  0  0  0
   33.5275   -3.6313   21.2107 N   0  0  0  0  0  0
   33.9588   -4.5587   20.1452 C   0  0  0  0  0  0
   34.4173   -3.8519   18.8536 C   0  0  0  0  0  0
   35.6398   -2.9978   19.2264 C   0  0  0  0  0  0
   35.0665   -1.9335   20.2119 C   0  0  0  0  0  0
   34.6292   -2.6868   21.4803 C   0  0  0  0  0  0
   24.0038   -2.1028   26.9405 H   0  0  0  0  0  0
   31.7958    5.9338   31.9828 H   0  0  0  0  0  0
  1  2  2  0  0  0
  1 16  1  0  0  0
  2  3  1  0  0  0
  3  4  1  0  0  0
  3  5  2  0  0  0
  4 35  1  0  0  0
  5  6  1  0  0  0
  6  7  1  0  0  0
  6 16  2  0  0  0
  7  8  1  0  0  0
  8  9  1  0  0  0
  8 17  2  0  0  0
  9 10  2  0  0  0
  9 15  1  0  0  0
 10 11  1  0  0  0
 11 12  2  0  0  0
 12 13  1  0  0  0
 12 14  1  0  0  0
 13 36  1  0  0  0
 14 15  2  0  0  0
 16 17  1  0  0  0
 17 18  1  0  0  0
 18 19  2  0  0  0
 18 20  1  0  0  0
 20 21  2  0  0  0
 20 25  1  0  0  0
 21 22  1  0  0  0
 22 23  2  0  0  0
 23 24  1  0  0  0
 23 26  1  0  0  0
 24 25  2  0  0  0
 26 27  1  0  0  0
 27 28  1  0  0  0
 28 29  1  0  0  0
 29 30  1  0  0  0
 29 34  1  0  0  0
 30 31  1  0  0  0
 31 32  1  0  0  0
 32 33  1  0  0  0
 33 34  1  0  0  0
M  END
>  <CHROM.0>
-102.67716625,-143.64822983,67.68861321,139.17314643

>  <CHROM.1>
-179.32111138,21.86952132,4.06371968,51.53944811,-155.50390822,109.80956970
178.77448298,-57.93325891,-174.58677442,30.83594711,-0.67200477,26.48000396
2.04235818,0.36373611,0.81030279

>  <FORMUL>
      RAL    C28 H27 N1 O4 S1

>  <HET>
 RAL  A 600      34

>  <HETNAM>
     RAL RALOXIFENE

>  <Name>
RAL.pdb

>  <RI>
0

>  <Rbt.Current_Directory>
/home/malgorzata/Desktop/rDOCK_IFD/Wyniki/6_estrogen_receptor/IFD

>  <Rbt.Executable>
rbdock ($Id: //depot/dev/client3/rdock/2013.1/src/exe/rbdock.cxx#4 $)

>  <Rbt.Library>
libRbt.so (2013.1, Build901 2013/11/27)

>  <Rbt.Parameter_File>
/home/malgorzata/Desktop/rDock_2013.1_src/data/scripts/dock.prm

>  <Rbt.Receptor>
cavity.prm

>  <SCORE>
-19.9026

>  <SCORE.INTER>
-14.9725

>  <SCORE.INTER.CONST>
1

>  <SCORE.INTER.POLAR>
0

>  <SCORE.INTER.REPUL>
0

>  <SCORE.INTER.ROT>
7

>  <SCORE.INTER.VDW>
-27.3725

>  <SCORE.INTER.norm>
-0.440367

>  <SCORE.INTRA>
-1.20475

>  <SCORE.INTRA.DIHEDRAL>
-2.45557

>  <SCORE.INTRA.DIHEDRAL.0>
18.358

>  <SCORE.INTRA.POLAR>
0

>  <SCORE.INTRA.POLAR.0>
0

>  <SCORE.INTRA.REPUL>
0

>  <SCORE.INTRA.REPUL.0>
0

>  <SCORE.INTRA.VDW>
0.0230323

>  <SCORE.INTRA.VDW.0>
-1.94569

>  <SCORE.INTRA.norm>
-0.0354339

>  <SCORE.RESTR>
0

>  <SCORE.RESTR.CAVITY>
0

>  <SCORE.RESTR.norm>
0

>  <SCORE.SYSTEM>
-3.72536

>  <SCORE.SYSTEM.CONST>
0

>  <SCORE.SYSTEM.DIHEDRAL>
1.49312

>  <SCORE.SYSTEM.POLAR>
-0.810628

>  <SCORE.SYSTEM.REPUL>
0.0185049

>  <SCORE.SYSTEM.VDW>
-1.80831

>  <SCORE.SYSTEM.norm>
-0.109569

>  <SCORE.heavy>
34

>  <SCORE.norm>
-0.58537

$$$$
RAL.pdb
  rDOCK(R)          3D
libRbt.so/2013.1/901 2013/11/27
 36 40  0  0  0  0  0  0  0  0999 V2000
   29.0979   -0.0910   29.3835 C   0  0  0  0  0  0
   27.7382    0.0661   29.4634 C   0  0  0  0  0  0
   27.1234    1.2655   29.2348 C   0  0  0  0  0  0
   25.7534    1.2830   29.3172 O   0  0  0  0  0  0
   27.8992    2.3775   28.8878 C   0  0  0  0  0  0
   29.2571    2.2078   28.7750 C   0  0  0  0  0  0
   30.4309    3.3205   28.4353 S   0  0  0  0  0  0
   31.7632    2.2855   28.4945 C   0  0  0  0  0  0
   33.1735    2.7450   28.3469 C   0  0  0  0  0  0
   34.1334    1.8494   28.7765 C   0  0  0  0  0  0
   35.4669    2.1749   28.5888 C   0  0  0  0  0  0
   35.8430    3.3783   28.0253 C   0  0  0  0  0  0
   37.2102    3.6158   27.8731 O   0  0  0  0  0  0
   34.8833    4.2506   27.5553 C   0  0  0  0  0  0
   33.5484    3.9081   27.7326 C   0  0  0  0  0  0
   29.8726    0.9503   29.0355 C   0  0  0  0  0  0
   31.3196    1.0088   28.8993 C   0  0  0  0  0  0
   32.1310   -0.0839   29.1384 C   0  0  0  0  0  0
   32.6464   -0.2236   30.2547 O   0  0  0  0  0  0
   32.4274   -1.0924   28.1151 C   0  0  0  0  0  0
   33.2640   -2.1541   28.3950 C   0  0  0  0  0  0
   33.5752   -3.1125   27.4500 C   0  0  0  0  0  0
   33.0484   -2.9826   26.1662 C   0  0  0  0  0  0
   32.2023   -1.9270   25.8765 C   0  0  0  0  0  0
   31.8855   -0.9954   26.8509 C   0  0  0  0  0  0
   33.2224   -3.7875   25.0794 O   0  0  0  0  0  0
   34.3691   -3.5368   24.2811 C   0  0  0  0  0  0
   34.1789   -2.2822   23.4710 C   0  0  0  0  0  0
   33.3364   -2.0609   22.3114 N   0  0  0  0  0  0
   32.0892   -2.8349   22.4745 C   0  0  0  0  0  0
   31.0417   -2.5651   21.3755 C   0  0  0  0  0  0
   31.6723   -3.0065   20.0449 C   0  0  0  0  0  0
   32.8711   -2.0269   19.8556 C   0  0  0  0  0  0
   33.8853   -2.3391   20.9698 C   0  0  0  0  0  0
   25.2706    1.9933   28.9428 H   0  0  0  0  0  0
   37.5082    4.2666   27.2684 H   0  0  0  0  0  0
  1  2  2  0  0  0
  1 16  1  0  0  0
  2  3  1  0  0  0
  3  4  1  0  0  0
  3  5  2  0  0  0
  4 35  1  0  0  0
  5  6  1  0  0  0
  6  7  1  0  0  0
  6 16  2  0  0  0
  7  8  1  0  0  0
  8  9  1  0  0  0
  8 17  2  0  0  0
  9 10  2  0  0  0
  9 15  1  0  0  0
 10 11  1  0  0  0
 11 12  2  0  0  0
 12 13  1  0  0  0
 12 14  1  0  0  0
 13 36  1  0  0  0
 14 15  2  0  0  0
 16 17  1  0  0  0
 17 18  1  0  0  0
 18 19  2  0  0  0
 18 20  1  0  0  0
 20 21  2  0  0  0
 20 25  1  0  0  0
 21 22  1  0  0  0
 22 23  2  0  0  0
 23 24  1  0  0  0
 23 26  1  0  0  0
 24 25  2  0  0  0
 26 27  1  0  0  0
 27 28  1  0  0  0
 28 29  1  0  0  0
 29 30  1  0  0  0
 29 34  1  0  0  0
 30 31  1  0  0  0
 31 32  1  0  0  0
 32 33  1  0  0  0
 33 34  1  0  0  0
M  END
>  <CHROM.0>
-89.98792951,-141.38883668,65.82361841,-66.00149462

>  <CHROM.1>
-162.79159323,163.11987575,160.57763280,85.60561993,178.81318655,-85.63158470
-73.75014939,-73.05817176,36.19872584,32.08382362,0.07652161,26.72387085
1.86837908,0.24219555,0.87226568

>  <FORMUL>
      RAL    C28 H27 N1 O4 S1

>  <HET>
 RAL  A 600      34

>  <HETNAM>
     RAL RALOXIFENE

>  <Name>
RAL.pdb

>  <RI>
0

>  <Rbt.Current_Directory>
/home/malgorzata/Desktop/rDOCK_IFD/Wyniki/6_estrogen_receptor/IFD

>  <Rbt.Executable>
rbdock ($Id: //depot/dev/client3/rdock/2013.1/src/exe/rbdock.cxx#4 $)

>  <Rbt.Library>
libRbt.so (2013.1, Build901 2013/11/27)

>  <Rbt.Parameter_File>
/home/malgorzata/Desktop/rDock_2013.1_src/data/scripts/dock.prm

>  <Rbt.Receptor>
cavity.prm

>  <SCORE>
-18.4453

>  <SCORE.INTER>
-16.4795

>  <SCORE.INTER.CONST>
1

>  <SCORE.INTER.POLAR>
-0.881787

>  <SCORE.INTER.REPUL>
0

>  <SCORE.INTER.ROT>
7

>  <SCORE.INTER.VDW>
-25.8815

>  <SCORE.INTER.norm>
-0.484692

>  <SCORE.INTRA>
1.60123

>  <SCORE.INTRA.DIHEDRAL>
1.91195

>  <SCORE.INTRA.DIHEDRAL.0>
18.358

>  <SCORE.INTRA.POLAR>
0

>  <SCORE.INTRA.POLAR.0>
0

>  <SCORE.INTRA.REPUL>
0

>  <SCORE.INTRA.REPUL.0>
0

>  <SCORE.INTRA.VDW>
0.645248

>  <SCORE.INTRA.VDW.0>
-1.94569

>  <SCORE.INTRA.norm>
0.0470949

>  <SCORE.RESTR>
0

>  <SCORE.RESTR.CAVITY>
0

>  <SCORE.RESTR.norm>
0

>  <SCORE.SYSTEM>
-3.567

>  <SCORE.SYSTEM.CONST>
0

>  <SCORE.SYSTEM.DIHEDRAL>
1.37169

>  <SCORE.SYSTEM.POLAR>
-0.802828

>  <SCORE.SYSTEM.REPUL>
0.0100387

>  <SCORE.SYSTEM.VDW>
-1.57342

>  <SCORE.SYSTEM.norm>
-0.104912

>  <SCORE.heavy>
34

>  <SCORE.norm>
-0.542509

$$$$
RAL.pdb
  rDOCK(R)          3D
libRbt.so/2013.1/901 2013/11/27
 36 40  0  0  0  0  0  0  0  0999 V2000
   29.3759    0.3295   28.2294 C   0  0  0  0  0  0
   28.1068    0.8452   28.1724 C   0  0  0  0  0  0
   27.8248    2.1395   28.5100 C   0  0  0  0  0  0
   26.5186    2.5410   28.3809 O   0  0  0  0  0  0
   28.8653    2.9842   28.9132 C   0  0  0  0  0  0
   30.1398    2.4736   28.9359 C   0  0  0  0  0  0
   31.5519    3.1920   29.4059 S   0  0  0  0  0  0
   32.5874    1.8899   29.1197 C   0  0  0  0  0  0
   34.0413    1.9030   29.4478 C   0  0  0  0  0  0
   34.7800    0.8759   28.8935 C   0  0  0  0  0  0
   36.1522    0.8752   29.0853 C   0  0  0  0  0  0
   36.7747    1.8474   29.8432 C   0  0  0  0  0  0
   38.1619    1.7660   29.9769 O   0  0  0  0  0  0
   36.0419    2.8970   30.3570 C   0  0  0  0  0  0
   34.6686    2.8983   30.1453 C   0  0  0  0  0  0
   30.4021    1.1160   28.5949 C   0  0  0  0  0  0
   31.8105    0.7786   28.7298 C   0  0  0  0  0  0
   32.2944   -0.4927   28.4861 C   0  0  0  0  0  0
   32.7819   -1.1447   29.4180 O   0  0  0  0  0  0
   32.2716   -1.1099   27.1555 C   0  0  0  0  0  0
   31.8235   -0.4015   26.0588 C   0  0  0  0  0  0
   31.7752   -0.9577   24.7952 C   0  0  0  0  0  0
   32.1651   -2.2860   24.6332 C   0  0  0  0  0  0
   32.6236   -3.0032   25.7238 C   0  0  0  0  0  0
   32.6871   -2.4122   26.9745 C   0  0  0  0  0  0
   32.1916   -3.0425   23.4990 O   0  0  0  0  0  0
   31.5792   -2.4818   22.3478 C   0  0  0  0  0  0
   31.7315   -3.4075   21.1704 C   0  0  0  0  0  0
   32.9436   -3.8955   20.5410 N   0  0  0  0  0  0
   33.5794   -4.8842   21.4352 C   0  0  0  0  0  0
   34.8003   -5.5911   20.8127 C   0  0  0  0  0  0
   35.8477   -4.5013   20.5327 C   0  0  0  0  0  0
   35.1736   -3.6036   19.4499 C   0  0  0  0  0  0
   33.9689   -2.9206   20.1206 C   0  0  0  0  0  0
   25.8585    1.9193   28.1451 H   0  0  0  0  0  0
   38.6365    1.0908   29.5332 H   0  0  0  0  0  0
  1  2  2  0  0  0
  1 16  1  0  0  0
  2  3  1  0  0  0
  3  4  1  0  0  0
  3  5  2  0  0  0
  4 35  1  0  0  0
  5  6  1  0  0  0
  6  7  1  0  0  0
  6 16  2  0  0  0
  7  8  1  0  0  0
  8  9  1  0  0  0
  8 17  2  0  0  0
  9 10  2  0  0  0
  9 15  1  0  0  0
 10 11  1  0  0  0
 11 12  2  0  0  0
 12 13  1  0  0  0
 12 14  1  0  0  0
 13 36  1  0  0  0
 14 15  2  0  0  0
 16 17  1  0  0  0
 17 18  1  0  0  0
 18 19  2  0  0  0
 18 20  1  0  0  0
 20 21  2  0  0  0
 20 25  1  0  0  0
 21 22  1  0  0  0
 22 23  2  0  0  0
 23 24  1  0  0  0
 23 26  1  0  0  0
 24 25  2  0  0  0
 26 27  1  0  0  0
 27 28  1  0  0  0
 28 29  1  0  0  0
 29 30  1  0  0  0
 29 34  1  0  0  0
 30 31  1  0  0  0
 31 32  1  0  0  0
 32 33  1  0  0  0
 33 34  1  0  0  0
M  END
>  <CHROM.0>
-114.98197327,118.26804685,65.76041233,-89.63443704

>  <CHROM.1>
5.25440089,-166.88693582,2.40794683,65.49462725,3.64481757,-9.31198856,177.97608461
-60.25758021,72.43925987,32.57269629,-0.35490444,26.43858274,1.73431391,-0.10301860
0.95274388

>  <FORMUL>
      RAL    C28 H27 N1 O4 S1

>  <HET>
 RAL  A 600      34

>  <HETNAM>
     RAL RALOXIFENE

>  <Name>
RAL.pdb

>  <RI>
0

>  <Rbt.Current_Directory>
/home/malgorzata/Desktop/rDOCK_IFD/Wyniki/6_estrogen_receptor/IFD

>  <Rbt.Executable>
rbdock ($Id: //depot/dev/client3/rdock/2013.1/src/exe/rbdock.cxx#4 $)

>  <Rbt.Library>
libRbt.so (2013.1, Build901 2013/11/27)

>  <Rbt.Parameter_File>
/home/malgorzata/Desktop/rDock_2013.1_src/data/scripts/dock.prm

>  <Rbt.Receptor>
cavity.prm

>  <SCORE>
-18.2184

>  <SCORE.INTER>
-11.4673

>  <SCORE.INTER.CONST>
1

>  <SCORE.INTER.POLAR>
0

>  <SCORE.INTER.REPUL>
0.00223965

>  <SCORE.INTER.ROT>
7

>  <SCORE.INTER.VDW>
-23.8785

>  <SCORE.INTER.norm>
-0.337274

>  <SCORE.INTRA>
-3.00402

>  <SCORE.INTRA.DIHEDRAL>
-7.43314

>  <SCORE.INTRA.DIHEDRAL.0>
18.358

>  <SCORE.INTRA.POLAR>
0

>  <SCORE.INTRA.POLAR.0>
0

>  <SCORE.INTRA.REPUL>
0

>  <SCORE.INTRA.REPUL.0>
0

>  <SCORE.INTRA.VDW>
0.712555

>  <SCORE.INTRA.VDW.0>
-1.94569

>  <SCORE.INTRA.norm>
-0.0883534

>  <SCORE.RESTR>
0

>  <SCORE.RESTR.CAVITY>
0

>  <SCORE.RESTR.norm>
0

>  <SCORE.SYSTEM>
-3.74702

>  <SCORE.SYSTEM.CONST>
0

>  <SCORE.SYSTEM.DIHEDRAL>
1.36742

>  <SCORE.SYSTEM.POLAR>
-0.802367

>  <SCORE.SYSTEM.VDW>
-1.70269

>  <SCORE.SYSTEM.norm>
-0.110207

>  <SCORE.heavy>
34

>  <SCORE.norm>
-0.535834

$$$$
RAL.pdb
  rDOCK(R)          3D
libRbt.so/2013.1/901 2013/11/27
 36 40  0  0  0  0  0  0  0  0999 V2000
   36.1023    1.6780   29.3139 C   0  0  0  0  0  0
   37.1700    2.5275   29.1795 C   0  0  0  0  0  0
   37.0231    3.8846   29.1043 C   0  0  0  0  0  0
   38.1737    4.6257   29.0010 O   0  0  0  0  0  0
   35.7409    4.4400   29.1843 C   0  0  0  0  0  0
   34.6774    3.5880   29.3534 C   0  0  0  0  0  0
   33.0616    3.9261   29.4316 S   0  0  0  0  0  0
   32.4989    2.3486   29.6418 C   0  0  0  0  0  0
   31.0538    1.9870   29.6942 C   0  0  0  0  0  0
   30.1761    3.0422   29.5384 C   0  0  0  0  0  0
   28.8192    2.7666   29.4894 C   0  0  0  0  0  0
   28.3391    1.4797   29.6322 C   0  0  0  0  0  0
   26.9564    1.2997   29.5651 O   0  0  0  0  0  0
   29.2187    0.4227   29.7413 C   0  0  0  0  0  0
   30.5785    0.7069   29.7726 C   0  0  0  0  0  0
   34.8584    2.1766   29.4118 C   0  0  0  0  0  0
   33.5964    1.4667   29.5500 C   0  0  0  0  0  0
   33.5231    0.0874   29.5923 C   0  0  0  0  0  0
   33.6399   -0.4929   30.6789 O   0  0  0  0  0  0
   33.3256   -0.7348   28.3935 C   0  0  0  0  0  0
   33.2231   -0.1492   27.1477 C   0  0  0  0  0  0
   33.0221   -0.8932   26.0012 C   0  0  0  0  0  0
   32.8903   -2.2760   26.1150 C   0  0  0  0  0  0
   32.9994   -2.8746   27.3575 C   0  0  0  0  0  0
   33.2281   -2.1070   28.4872 C   0  0  0  0  0  0
   32.6778   -3.2032   25.1380 O   0  0  0  0  0  0
   32.8610   -2.7679   23.7994 C   0  0  0  0  0  0
   32.8226   -3.9416   22.8573 C   0  0  0  0  0  0
   33.1275   -3.9876   21.4401 N   0  0  0  0  0  0
   31.9815   -3.4373   20.6885 C   0  0  0  0  0  0
   32.2424   -3.2910   19.1758 C   0  0  0  0  0  0
   32.4973   -4.7059   18.6317 C   0  0  0  0  0  0
   33.8184   -5.1451   19.3350 C   0  0  0  0  0  0
   33.5039   -5.2802   20.8351 C   0  0  0  0  0  0
   38.1291    5.5616   28.9934 H   0  0  0  0  0  0
   26.5903    0.4425   29.6606 H   0  0  0  0  0  0
  1  2  2  0  0  0
  1 16  1  0  0  0
  2  3  1  0  0  0
  3  4  1  0  0  0
  3  5  2  0  0  0
  4 35  1  0  0  0
  5  6  1  0  0  0
  6  7  1  0  0  0
  6 16  2  0  0  0
  7  8  1  0  0  0
  8  9  1  0  0  0
  8 17  2  0  0  0
  9 10  2  0  0  0
  9 15  1  0  0  0
 10 11  1  0  0  0
 11 12  2  0  0  0
 12 13  1  0  0  0
 12 14  1  0  0  0
 13 36  1  0  0  0
 14 15  2  0  0  0
 16 17  1  0  0  0
 17 18  1  0  0  0
 18 19  2  0  0  0
 18 20  1  0  0  0
 20 21  2  0  0  0
 20 25  1  0  0  0
 21 22  1  0  0  0
 22 23  2  0  0  0
 23 24  1  0  0  0
 23 26  1  0  0  0
 24 25  2  0  0  0
 26 27  1  0  0  0
 27 28  1  0  0  0
 28 29  1  0  0  0
 29 30  1  0  0  0
 29 34  1  0  0  0
 30 31  1  0  0  0
 31 32  1  0  0  0
 32 33  1  0  0  0
 33 34  1  0  0  0
M  END
>  <CHROM.0>
-112.03674747,126.04384736,67.86014100,-105.87223293

>  <CHROM.1>
-176.67893528,0.86954959,-179.75529526,-92.01783333,0.98228315,13.27706448
170.41436827,-171.49630811,-77.77561050,32.91934497,0.00783449,26.95236472
-1.52895952,-0.23913528,-2.23509198

>  <FORMUL>
      RAL    C28 H27 N1 O4 S1

>  <HET>
 RAL  A 600      34

>  <HETNAM>
     RAL RALOXIFENE

>  <Name>
RAL.pdb

>  <RI>
0

>  <Rbt.Current_Directory>
/home/malgorzata/Desktop/rDOCK_IFD/Wyniki/6_estrogen_receptor/IFD

>  <Rbt.Executable>
rbdock ($Id: //depot/dev/client3/rdock/2013.1/src/exe/rbdock.cxx#4 $)

>  <Rbt.Library>
libRbt.so (2013.1, Build901 2013/11/27)

>  <Rbt.Parameter_File>
/home/malgorzata/Desktop/rDock_2013.1_src/data/scripts/dock.prm

>  <Rbt.Receptor>
cavity.prm

>  <SCORE>
-19.4189

>  <SCORE.INTER>
-13.1598

>  <SCORE.INTER.CONST>
1

>  <SCORE.INTER.POLAR>
0

>  <SCORE.INTER.REPUL>
0

>  <SCORE.INTER.ROT>
7

>  <SCORE.INTER.VDW>
-25.5598

>  <SCORE.INTER.norm>
-0.387053

>  <SCORE.INTRA>
-2.48527

>  <SCORE.INTRA.DIHEDRAL>
-5.17068

>  <SCORE.INTRA.DIHEDRAL.0>
18.358

>  <SCORE.INTRA.POLAR>
0

>  <SCORE.INTRA.POLAR.0>
0

>  <SCORE.INTRA.REPUL>
0

>  <SCORE.INTRA.REPUL.0>
0

>  <SCORE.INTRA.VDW>
0.100068

>  <SCORE.INTRA.VDW.0>
-1.94569

>  <SCORE.INTRA.norm>
-0.0730963

>  <SCORE.RESTR>
0

>  <SCORE.RESTR.CAVITY>
0

>  <SCORE.RESTR.norm>
0

>  <SCORE.SYSTEM>
-3.77382

>  <SCORE.SYSTEM.CONST>
0

>  <SCORE.SYSTEM.DIHEDRAL>
1.50506

>  <SCORE.SYSTEM.POLAR>
-0.808737

>  <SCORE.SYSTEM.VDW>
-1.77665

>  <SCORE.SYSTEM.norm>
-0.110995

>  <SCORE.heavy>
34

>  <SCORE.norm>
-0.571144

$$$$
RAL.pdb
  rDOCK(R)          3D
libRbt.so/2013.1/901 2013/11/27
 36 40  0  0  0  0  0  0  0  0999 V2000
   30.8599    1.6933   29.3255 C   0  0  0  0  0  0
   31.7277    2.7082   29.6364 C   0  0  0  0  0  0
   31.3080    3.9898   29.8600 C   0  0  0  0  0  0
   32.2737    4.9069   30.1923 O   0  0  0  0  0  0
   29.9418    4.2852   29.7892 C   0  0  0  0  0  0
   29.0727    3.2589   29.5116 C   0  0  0  0  0  0
   27.4324    3.2949   29.3139 S   0  0  0  0  0  0
   27.1938    1.6517   29.0097 C   0  0  0  0  0  0
   25.8720    1.0603   28.6563 C   0  0  0  0  0  0
   25.9243   -0.0634   27.8548 C   0  0  0  0  0  0
   24.7383   -0.7156   27.5591 C   0  0  0  0  0  0
   23.5228   -0.2427   28.0131 C   0  0  0  0  0  0
   22.3821   -0.9694   27.6671 O   0  0  0  0  0  0
   23.4771    0.8522   28.8508 C   0  0  0  0  0  0
   24.6734    1.4899   29.1557 C   0  0  0  0  0  0
   29.5397    1.9361   29.2663 C   0  0  0  0  0  0
   28.4544    1.0207   28.9503 C   0  0  0  0  0  0
   28.6724   -0.3085   28.6420 C   0  0  0  0  0  0
   27.9954   -1.1797   29.2023 O   0  0  0  0  0  0
   29.6912   -0.7444   27.6807 C   0  0  0  0  0  0
   30.1740    0.1258   26.7240 C   0  0  0  0  0  0
   31.1221   -0.2570   25.7951 C   0  0  0  0  0  0
   31.5810   -1.5730   25.8103 C   0  0  0  0  0  0
   31.1102   -2.4517   26.7696 C   0  0  0  0  0  0
   30.1797   -2.0336   27.7061 C   0  0  0  0  0  0
   32.4937   -2.1752   24.9955 O   0  0  0  0  0  0
   32.8341   -1.4836   23.8036 C   0  0  0  0  0  0
   33.9282   -2.2123   23.0698 C   0  0  0  0  0  0
   34.5753   -1.8701   21.8177 N   0  0  0  0  0  0
   35.5982   -2.8917   21.5158 C   0  0  0  0  0  0
   36.2552   -2.7236   20.1310 C   0  0  0  0  0  0
   36.9704   -1.3629   20.1424 C   0  0  0  0  0  0
   35.8093   -0.3309   20.2826 C   0  0  0  0  0  0
   35.1927   -0.5368   21.6772 C   0  0  0  0  0  0
   32.0315    5.7881   30.3994 H   0  0  0  0  0  0
   22.4608   -1.7464   27.1493 H   0  0  0  0  0  0
  1  2  2  0  0  0
  1 16  1  0  0  0
  2  3  1  0  0  0
  3  4  1  0  0  0
  3  5  2  0  0  0
  4 35  1  0  0  0
  5  6  1  0  0  0
  6  7  1  0  0  0
  6 16  2  0  0  0
  7  8  1  0  0  0
  8  9  1  0  0  0
  8 17  2  0  0  0
  9 10  2  0  0  0
  9 15  1  0  0  0
 10 11  1  0  0  0
 11 12  2  0  0  0
 12 13  1  0  0  0
 12 14  1  0  0  0
 13 36  1  0  0  0
 14 15  2  0  0  0
 16 17  1  0  0  0
 17 18  1  0  0  0
 18 19  2  0  0  0
 18 20  1  0  0  0
 20 21  2  0  0  0
 20 25  1  0  0  0
 21 22  1  0  0  0
 22 23  2  0  0  0
 23 24  1  0  0  0
 23 26  1  0  0  0
 24 25  2  0  0  0
 26 27  1  0  0  0
 27 28  1  0  0  0
 28 29  1  0  0  0
 29 30  1  0  0  0
 29 34  1  0  0  0
 30 31  1  0  0  0
 31 32  1  0  0  0
 32 33  1  0  0  0
 33 34  1  0  0  0
M  END
>  <CHROM.0>
-94.88223453,-143.74105618,65.74972894,117.57837457

>  <CHROM.1>
-176.78287077,150.41538373,0.22817669,-47.73654882,-21.56111019,-14.40838018
175.35667840,179.82457615,179.51166120,30.04487537,0.26388906,26.73633959
-2.47479470,-0.31790055,-2.35395167

>  <FORMUL>
      RAL    C28 H27 N1 O4 S1

>  <HET>
 RAL  A 600      34

>  <HETNAM>
     RAL RALOXIFENE

>  <Name>
RAL.pdb

>  <RI>
0

>  <Rbt.Current_Directory>
/home/malgorzata/Desktop/rDOCK_IFD/Wyniki/6_estrogen_receptor/IFD

>  <Rbt.Executable>
rbdock ($Id: //depot/dev/client3/rdock/2013.1/src/exe/rbdock.cxx#4 $)

>  <Rbt.Library>
libRbt.so (2013.1, Build901 2013/11/27)

>  <Rbt.Parameter_File>
/home/malgorzata/Desktop/rDock_2013.1_src/data/scripts/dock.prm

>  <Rbt.Receptor>
cavity.prm

>  <SCORE>
-19.2795

>  <SCORE.INTER>
-12.9507

>  <SCORE.INTER.CONST>
1

>  <SCORE.INTER.POLAR>
-0.426723

>  <SCORE.INTER.REPUL>
0

>  <SCORE.INTER.ROT>
7

>  <SCORE.INTER.VDW>
-23.8999

>  <SCORE.INTER.norm>
-0.380904

>  <SCORE.INTRA>
-2.58696

>  <SCORE.INTRA.DIHEDRAL>
-7.33306

>  <SCORE.INTRA.DIHEDRAL.0>
18.358

>  <SCORE.INTRA.POLAR>
0

>  <SCORE.INTRA.POLAR.0>
0

>  <SCORE.INTRA.REPUL>
0

>  <SCORE.INTRA.REPUL.0>
0

>  <SCORE.INTRA.VDW>
1.07957

>  <SCORE.INTRA.VDW.0>
-1.94569

>  <SCORE.INTRA.norm>
-0.076087

>  <SCORE.RESTR>
0

>  <SCORE.RESTR.CAVITY>
0

>  <SCORE.RESTR.norm>
0

>  <SCORE.SYSTEM>
-3.74182

>  <SCORE.SYSTEM.CONST>
0

>  <SCORE.SYSTEM.DIHEDRAL>
1.36775

>  <SCORE.SYSTEM.POLAR>
-0.802289

>  <SCORE.SYSTEM.REPUL>
0.0188732

>  <SCORE.SYSTEM.VDW>
-1.79228

>  <SCORE.SYSTEM.norm>
-0.110053

>  <SCORE.heavy>
34

>  <SCORE.norm>
-0.567044

$$$$
RAL.pdb
  rDOCK(R)          3D
libRbt.so/2013.1/901 2013/11/27
 36 40  0  0  0  0  0  0  0  0999 V2000
   30.5556    1.8773   29.6123 C   0  0  0  0  0  0
   31.2250    3.0074   30.0056 C   0  0  0  0  0  0
   30.6100    4.2231   30.1174 C   0  0  0  0  0  0
   31.3852    5.2701   30.5497 O   0  0  0  0  0  0
   29.2421    4.3266   29.8399 C   0  0  0  0  0  0
   28.5681    3.1858   29.4797 C   0  0  0  0  0  0
   26.9848    2.9925   29.0472 S   0  0  0  0  0  0
   27.0148    1.3268   28.7750 C   0  0  0  0  0  0
   25.8503    0.5530   28.2583 C   0  0  0  0  0  0
   26.1489   -0.7017   27.7636 C   0  0  0  0  0  0
   25.1034   -1.5099   27.3472 C   0  0  0  0  0  0
   23.7946   -1.0707   27.3817 C   0  0  0  0  0  0
   22.8088   -1.9576   26.9453 O   0  0  0  0  0  0
   23.4944    0.1639   27.9186 C   0  0  0  0  0  0
   24.5480    0.9609   28.3493 C   0  0  0  0  0  0
   29.2381    1.9353   29.3549 C   0  0  0  0  0  0
   28.3430    0.8739   28.9215 C   0  0  0  0  0  0
   28.7792   -0.4182   28.6987 C   0  0  0  0  0  0
   28.2417   -1.3527   29.3062 O   0  0  0  0  0  0
   29.8733   -0.7394   27.7758 C   0  0  0  0  0  0
   30.3943    0.2267   26.9387 C   0  0  0  0  0  0
   31.4142   -0.0463   26.0478 C   0  0  0  0  0  0
   31.9093   -1.3472   25.9752 C   0  0  0  0  0  0
   31.4003   -2.3217   26.8149 C   0  0  0  0  0  0
   30.3964   -2.0139   27.7179 C   0  0  0  0  0  0
   32.8924   -1.8500   25.1752 O   0  0  0  0  0  0
   33.6066   -0.9137   24.3826 C   0  0  0  0  0  0
   34.7701   -1.5838   23.7017 C   0  0  0  0  0  0
   35.9047   -2.2682   24.2913 N   0  0  0  0  0  0
   36.7851   -2.7505   23.2080 C   0  0  0  0  0  0
   38.1076   -3.3654   23.7087 C   0  0  0  0  0  0
   37.7325   -4.5893   24.5598 C   0  0  0  0  0  0
   36.9639   -3.9806   25.7727 C   0  0  0  0  0  0
   35.6557   -3.3865   25.2219 C   0  0  0  0  0  0
   31.0103    6.1239   30.6415 H   0  0  0  0  0  0
   21.9125   -1.6855   26.9182 H   0  0  0  0  0  0
  1  2  2  0  0  0
  1 16  1  0  0  0
  2  3  1  0  0  0
  3  4  1  0  0  0
  3  5  2  0  0  0
  4 35  1  0  0  0
  5  6  1  0  0  0
  6  7  1  0  0  0
  6 16  2  0  0  0
  7  8  1  0  0  0
  8  9  1  0  0  0
  8 17  2  0  0  0
  9 10  2  0  0  0
  9 15  1  0  0  0
 10 11  1  0  0  0
 11 12  2  0  0  0
 12 13  1  0  0  0
 12 14  1  0  0  0
 13 36  1  0  0  0
 14 15  2  0  0  0
 16 17  1  0  0  0
 17 18  1  0  0  0
 18 19  2  0  0  0
 18 20  1  0  0  0
 20 21  2  0  0  0
 20 25  1  0  0  0
 21 22  1  0  0  0
 22 23  2  0  0  0
 23 24  1  0  0  0
 23 26  1  0  0  0
 24 25  2  0  0  0
 26 27  1  0  0  0
 27 28  1  0  0  0
 28 29  1  0  0  0
 29 30  1  0  0  0
 29 34  1  0  0  0
 30 31  1  0  0  0
 31 32  1  0  0  0
 32 33  1  0  0  0
 33 34  1  0  0  0
M  END
>  <CHROM.0>
-111.34684544,125.36261477,66.58383276,119.22581012

>  <CHROM.1>
179.90743180,163.38928712,-177.38382015,-55.70147381,-9.34168173,6.28339338
172.36553819,-59.97036229,-179.62122494,30.24137098,-0.13533751,27.34003856
-2.62370007,-0.13015126,-2.57026320

>  <FORMUL>
      RAL    C28 H27 N1 O4 S1

>  <HET>
 RAL  A 600      34

>  <HETNAM>
     RAL RALOXIFENE

>  <Name>
RAL.pdb

>  <RI>
0

>  <Rbt.Current_Directory>
/home/malgorzata/Desktop/rDOCK_IFD/Wyniki/6_estrogen_receptor/IFD

>  <Rbt.Executable>
rbdock ($Id: //depot/dev/client3/rdock/2013.1/src/exe/rbdock.cxx#4 $)

>  <Rbt.Library>
libRbt.so (2013.1, Build901 2013/11/27)

>  <Rbt.Parameter_File>
/home/malgorzata/Desktop/rDock_2013.1_src/data/scripts/dock.prm

>  <Rbt.Receptor>
cavity.prm

>  <SCORE>
-20.5079

>  <SCORE.INTER>
-13.4718

>  <SCORE.INTER.CONST>
1

>  <SCORE.INTER.POLAR>
0

>  <SCORE.INTER.REPUL>
0

>  <SCORE.INTER.ROT>
7

>  <SCORE.INTER.VDW>
-25.8718

>  <SCORE.INTER.norm>
-0.396229

>  <SCORE.INTRA>
-3.21612

>  <SCORE.INTRA.DIHEDRAL>
-9.00891

>  <SCORE.INTRA.DIHEDRAL.0>
18.358

>  <SCORE.INTRA.POLAR>
0

>  <SCORE.INTRA.POLAR.0>
0

>  <SCORE.INTRA.REPUL>
0

>  <SCORE.INTRA.REPUL.0>
0

>  <SCORE.INTRA.VDW>
1.28834

>  <SCORE.INTRA.VDW.0>
-1.94569

>  <SCORE.INTRA.norm>
-0.0945917

>  <SCORE.RESTR>
0

>  <SCORE.RESTR.CAVITY>
0

>  <SCORE.RESTR.norm>
0

>  <SCORE.SYSTEM>
-3.82001

>  <SCORE.SYSTEM.CONST>
0

>  <SCORE.SYSTEM.DIHEDRAL>
1.41669

>  <SCORE.SYSTEM.POLAR>
-0.808045

>  <SCORE.SYSTEM.VDW>
-1.781

>  <SCORE.SYSTEM.norm>
-0.112353

>  <SCORE.heavy>
34

>  <SCORE.norm>
-0.603174

$$$$
RAL.pdb
  rDOCK(R)          3D
libRbt.so/2013.1/901 2013/11/27
 36 40  0  0  0  0  0  0  0  0999 V2000
   25.7875   -1.2740   28.0782 C   0  0  0  0  0  0
   24.4619   -1.3932   27.7492 C   0  0  0  0  0  0
   23.6137   -0.3215   27.7204 C   0  0  0  0  0  0
   22.3167   -0.5701   27.3461 O   0  0  0  0  0  0
   24.1099    0.9527   28.0186 C   0  0  0  0  0  0
   25.4456    1.0728   28.3139 C   0  0  0  0  0  0
   26.3093    2.4124   28.7505 S   0  0  0  0  0  0
   27.8195    1.6769   28.9175 C   0  0  0  0  0  0
   29.0373    2.3902   29.3974 C   0  0  0  0  0  0
   30.2290    1.7203   29.2000 C   0  0  0  0  0  0
   31.4082    2.3619   29.5426 C   0  0  0  0  0  0
   31.4056    3.6228   30.1059 C   0  0  0  0  0  0
   32.6434    4.1901   30.4141 O   0  0  0  0  0  0
   30.2185    4.3082   30.2594 C   0  0  0  0  0  0
   29.0421    3.6632   29.8973 C   0  0  0  0  0  0
   26.3027   -0.0638   28.3529 C   0  0  0  0  0  0
   27.6632    0.2875   28.7287 C   0  0  0  0  0  0
   28.6616   -0.6581   28.8654 C   0  0  0  0  0  0
   28.7417   -1.3077   29.9155 O   0  0  0  0  0  0
   29.6541   -0.9227   27.8179 C   0  0  0  0  0  0
   29.7125   -0.1320   26.6880 C   0  0  0  0  0  0
   30.6247   -0.3631   25.6766 C   0  0  0  0  0  0
   31.4919   -1.4481   25.7924 C   0  0  0  0  0  0
   31.4478   -2.2426   26.9241 C   0  0  0  0  0  0
   30.5412   -1.9718   27.9353 C   0  0  0  0  0  0
   32.4560   -1.8748   24.9277 O   0  0  0  0  0  0
   33.1094   -0.8740   24.1618 C   0  0  0  0  0  0
   34.0045   -1.5060   23.1294 C   0  0  0  0  0  0
   34.6694   -0.8922   21.9959 N   0  0  0  0  0  0
   35.3862   -1.9393   21.2403 C   0  0  0  0  0  0
   36.0112   -1.4378   19.9229 C   0  0  0  0  0  0
   37.0493   -0.3699   20.3037 C   0  0  0  0  0  0
   36.1955    0.7757   20.9294 C   0  0  0  0  0  0
   35.6002    0.2274   22.2380 C   0  0  0  0  0  0
   22.0452   -1.4452   27.1500 H   0  0  0  0  0  0
   33.4303    3.6997   30.2788 H   0  0  0  0  0  0
  1  2  2  0  0  0
  1 16  1  0  0  0
  2  3  1  0  0  0
  3  4  1  0  0  0
  3  5  2  0  0  0
  4 35  1  0  0  0
  5  6  1  0  0  0
  6  7  1  0  0  0
  6 16  2  0  0  0
  7  8  1  0  0  0
  8  9  1  0  0  0
  8 17  2  0  0  0
  9 10  2  0  0  0
  9 15  1  0  0  0
 10 11  1  0  0  0
 11 12  2  0  0  0
 12 13  1  0  0  0
 12 14  1  0  0  0
 13 36  1  0  0  0
 14 15  2  0  0  0
 16 17  1  0  0  0
 17 18  1  0  0  0
 18 19  2  0  0  0
 18 20  1  0  0  0
 20 21  2  0  0  0
 20 25  1  0  0  0
 21 22  1  0  0  0
 22 23  2  0  0  0
 23 24  1  0  0  0
 23 26  1  0  0  0
 24 25  2  0  0  0
 26 27  1  0  0  0
 27 28  1  0  0  0
 28 29  1  0  0  0
 29 30  1  0  0  0
 29 34  1  0  0  0
 30 31  1  0  0  0
 31 32  1  0  0  0
 32 33  1  0  0  0
 33 34  1  0  0  0
M  END
>  <CHROM.0>
-92.37052000,-58.11820469,67.06479718,-91.43691452

>  <CHROM.1>
1.76870905,-166.68009271,-3.15469294,99.06178992,6.59474032,31.90089607,-172.32268567
168.02189823,-177.37182423,30.03447431,0.30242727,26.74713049,2.55179406
0.31421618,0.89366758

>  <FORMUL>
      RAL    C28 H27 N1 O4 S1

>  <HET>
 RAL  A 600      34

>  <HETNAM>
     RAL RALOXIFENE

>  <Name>
RAL.pdb

>  <RI>
0

>  <Rbt.Current_Directory>
/home/malgorzata/Desktop/rDOCK_IFD/Wyniki/6_estrogen_receptor/IFD

>  <Rbt.Executable>
rbdock ($Id: //depot/dev/client3/rdock/2013.1/src/exe/rbdock.cxx#4 $)

>  <Rbt.Library>
libRbt.so (2013.1, Build901 2013/11/27)

>  <Rbt.Parameter_File>
/home/malgorzata/Desktop/rDock_2013.1_src/data/scripts/dock.prm

>  <Rbt.Receptor>
cavity.prm

>  <SCORE>
-20.0903

>  <SCORE.INTER>
-15.3071

>  <SCORE.INTER.CONST>
1

>  <SCORE.INTER.POLAR>
-0.631528

>  <SCORE.INTER.REPUL>
0

>  <SCORE.INTER.ROT>
7

>  <SCORE.INTER.VDW>
-25.5599

>  <SCORE.INTER.norm>
-0.45021

>  <SCORE.INTRA>
-1.6119

>  <SCORE.INTRA.DIHEDRAL>
-3.77918

>  <SCORE.INTRA.DIHEDRAL.0>
18.358

>  <SCORE.INTRA.POLAR>
0

>  <SCORE.INTRA.POLAR.0>
0

>  <SCORE.INTRA.REPUL>
0

>  <SCORE.INTRA.REPUL.0>
0

>  <SCORE.INTRA.VDW>
0.277689

>  <SCORE.INTRA.VDW.0>
-1.94569

>  <SCORE.INTRA.norm>
-0.0474089

>  <SCORE.RESTR>
0

>  <SCORE.RESTR.CAVITY>
0

>  <SCORE.RESTR.norm>
0

>  <SCORE.SYSTEM>
-3.17129

>  <SCORE.SYSTEM.CONST>
0

>  <SCORE.SYSTEM.DIHEDRAL>
1.44809

>  <SCORE.SYSTEM.POLAR>
-0.811032

>  <SCORE.SYSTEM.VDW>
-1.13783

>  <SCORE.SYSTEM.norm>
-0.0932734

>  <SCORE.heavy>
34

>  <SCORE.norm>
-0.590892

$$$$
RAL.pdb
  rDOCK(R)          3D
libRbt.so/2013.1/901 2013/11/27
 36 40  0  0  0  0  0  0  0  0999 V2000
   30.4595    1.8612   29.4862 C   0  0  0  0  0  0
   31.1063    2.9943   29.9075 C   0  0  0  0  0  0
   30.4578    4.1834   30.0928 C   0  0  0  0  0  0
   31.2141    5.2354   30.5459 O   0  0  0  0  0  0
   29.0788    4.2542   29.8642 C   0  0  0  0  0  0
   28.4289    3.1088   29.4756 C   0  0  0  0  0  0
   26.8388    2.8829   29.0861 S   0  0  0  0  0  0
   26.9115    1.2324   28.7395 C   0  0  0  0  0  0
   25.7549    0.4443   28.2267 C   0  0  0  0  0  0
   26.0541   -0.8380   27.8092 C   0  0  0  0  0  0
   25.0129   -1.6565   27.4023 C   0  0  0  0  0  0
   23.7090   -1.2026   27.3706 C   0  0  0  0  0  0
   22.7271   -2.1013   26.9497 O   0  0  0  0  0  0
   23.4066    0.0620   27.8312 C   0  0  0  0  0  0
   24.4554    0.8699   28.2533 C   0  0  0  0  0  0
   29.1330    1.8874   29.2741 C   0  0  0  0  0  0
   28.2573    0.8171   28.8230 C   0  0  0  0  0  0
   28.7258   -0.4493   28.5293 C   0  0  0  0  0  0
   28.3580   -1.4072   29.2210 O   0  0  0  0  0  0
   29.6623   -0.7153   27.4319 C   0  0  0  0  0  0
   30.3798   -1.8937   27.3893 C   0  0  0  0  0  0
   31.2803   -2.1687   26.3784 C   0  0  0  0  0  0
   31.4887   -1.2099   25.3884 C   0  0  0  0  0  0
   30.7692   -0.0286   25.4165 C   0  0  0  0  0  0
   29.8527    0.2095   26.4271 C   0  0  0  0  0  0
   32.3247   -1.2526   24.3120 O   0  0  0  0  0  0
   32.1305   -2.3225   23.3996 C   0  0  0  0  0  0
   32.6716   -3.6048   23.9736 C   0  0  0  0  0  0
   34.0363   -3.9444   24.3279 N   0  0  0  0  0  0
   34.4892   -3.0371   25.4017 C   0  0  0  0  0  0
   35.8762   -3.3937   25.9734 C   0  0  0  0  0  0
   36.8802   -3.2564   24.8174 C   0  0  0  0  0  0
   36.4454   -4.3651   23.8102 C   0  0  0  0  0  0
   35.0633   -3.9609   23.2680 C   0  0  0  0  0  0
   32.1303    5.1197   30.7044 H   0  0  0  0  0  0
   21.8246   -1.8498   26.9643 H   0  0  0  0  0  0
  1  2  2  0  0  0
  1 16  1  0  0  0
  2  3  1  0  0  0
  3  4  1  0  0  0
  3  5  2  0  0  0
  4 35  1  0  0  0
  5  6  1  0  0  0
  6  7  1  0  0  0
  6 16  2  0  0  0
  7  8  1  0  0  0
  8  9  1  0  0  0
  8 17  2  0  0  0
  9 10  2  0  0  0
  9 15  1  0  0  0
 10 11  1  0  0  0
 11 12  2  0  0  0
 12 13  1  0  0  0
 12 14  1  0  0  0
 13 36  1  0  0  0
 14 15  2  0  0  0
 16 17  1  0  0  0
 17 18  1  0  0  0
 18 19  2  0  0  0
 18 20  1  0  0  0
 20 21  2  0  0  0
 20 25  1  0  0  0
 21 22  1  0  0  0
 22 23  2  0  0  0
 23 24  1  0  0  0
 23 26  1  0  0  0
 24 25  2  0  0  0
 26 27  1  0  0  0
 27 28  1  0  0  0
 28 29  1  0  0  0
 29 30  1  0  0  0
 29 34  1  0  0  0
 30 31  1  0  0  0
 31 32  1  0  0  0
 32 33  1  0  0  0
 33 34  1  0  0  0
M  END
>  <CHROM.0>
-88.19280486,117.27017625,65.17388795,135.67874904

>  <CHROM.1>
0.59882209,170.53005291,176.22410806,-64.37543533,162.33343832,58.32945140
-75.53824930,-63.14660519,62.50299622,29.76289064,-0.30149087,27.21921689
-2.50246424,-0.10375690,-2.53024070

>  <FORMUL>
      RAL    C28 H27 N1 O4 S1

>  <HET>
 RAL  A 600      34

>  <HETNAM>
     RAL RALOXIFENE

>  <Name>
RAL.pdb

>  <RI>
0

>  <Rbt.Current_Directory>
/home/malgorzata/Desktop/rDOCK_IFD/Wyniki/6_estrogen_receptor/IFD

>  <Rbt.Executable>
rbdock ($Id: //depot/dev/client3/rdock/2013.1/src/exe/rbdock.cxx#4 $)

>  <Rbt.Library>
libRbt.so (2013.1, Build901 2013/11/27)

>  <Rbt.Parameter_File>
/home/malgorzata/Desktop/rDock_2013.1_src/data/scripts/dock.prm

>  <Rbt.Receptor>
cavity.prm

>  <SCORE>
-19.2756

>  <SCORE.INTER>
-14.689

>  <SCORE.INTER.CONST>
1

>  <SCORE.INTER.POLAR>
0

>  <SCORE.INTER.REPUL>
0

>  <SCORE.INTER.ROT>
7

>  <SCORE.INTER.VDW>
-27.089

>  <SCORE.INTER.norm>
-0.432029

>  <SCORE.INTRA>
-0.815578

>  <SCORE.INTRA.DIHEDRAL>
-2.98382

>  <SCORE.INTRA.DIHEDRAL.0>
18.358

>  <SCORE.INTRA.POLAR>
0

>  <SCORE.INTRA.POLAR.0>
0

>  <SCORE.INTRA.REPUL>
0

>  <SCORE.INTRA.REPUL.0>
0

>  <SCORE.INTRA.VDW>
0.676333

>  <SCORE.INTRA.VDW.0>
-1.94569

>  <SCORE.INTRA.norm>
-0.0239876

>  <SCORE.RESTR>
0

>  <SCORE.RESTR.CAVITY>
0

>  <SCORE.RESTR.norm>
0

>  <SCORE.SYSTEM>
-3.771

>  <SCORE.SYSTEM.CONST>
0

>  <SCORE.SYSTEM.DIHEDRAL>
1.33619

>  <SCORE.SYSTEM.POLAR>
-0.797901

>  <SCORE.SYSTEM.VDW>
-1.72623

>  <SCORE.SYSTEM.norm>
-0.110912

>  <SCORE.heavy>
34

>  <SCORE.norm>
-0.566929

$$$$
