RAL.pdb
  rDOCK(R)          3D
libRbt.so/2013.1/901 2013/11/27
 36 40  0  0  0  0  0  0  0  0999 V2000
   32.2301    0.1106   22.8577 C   0  0  0  0  0  0
   31.2384    0.3838   21.9512 C   0  0  0  0  0  0
   31.3653    1.3519   20.9944 C   0  0  0  0  0  0
   30.3116    1.5063   20.1284 O   0  0  0  0  0  0
   32.5544    2.0858   20.9163 C   0  0  0  0  0  0
   33.5582    1.7856   21.8039 C   0  0  0  0  0  0
   35.0382    2.4952   21.9964 S   0  0  0  0  0  0
   35.5991    1.5336   23.2654 C   0  0  0  0  0  0
   36.8999    1.7565   23.9584 C   0  0  0  0  0  0
   37.1515    0.9155   25.0248 C   0  0  0  0  0  0
   38.3791    1.0088   25.6602 C   0  0  0  0  0  0
   39.3214    1.9418   25.2746 C   0  0  0  0  0  0
   40.5308    1.9579   25.9718 O   0  0  0  0  0  0
   39.0868    2.7489   24.1809 C   0  0  0  0  0  0
   37.8594    2.6366   23.5394 C   0  0  0  0  0  0
   33.3921    0.7830   22.8015 C   0  0  0  0  0  0
   34.5614    0.6621   23.6580 C   0  0  0  0  0  0
   34.6149   -0.2227   24.7182 C   0  0  0  0  0  0
   35.3699   -1.2010   24.6538 O   0  0  0  0  0  0
   33.7983   -0.0650   25.9266 C   0  0  0  0  0  0
   32.7992    0.8859   25.9816 C   0  0  0  0  0  0
   32.0223    1.0701   27.1089 C   0  0  0  0  0  0
   32.2790    0.2883   28.2339 C   0  0  0  0  0  0
   33.2725   -0.6734   28.1876 C   0  0  0  0  0  0
   34.0182   -0.8553   27.0350 C   0  0  0  0  0  0
   31.6592    0.2989   29.4484 O   0  0  0  0  0  0
   30.8115    1.4049   29.7186 C   0  0  0  0  0  0
   29.5282    1.2831   28.9409 C   0  0  0  0  0  0
   28.3053    2.0526   29.0673 N   0  0  0  0  0  0
   28.6464    3.4894   29.0826 C   0  0  0  0  0  0
   27.4175    4.4206   29.0611 C   0  0  0  0  0  0
   26.6231    4.1349   30.3458 C   0  0  0  0  0  0
   26.1463    2.6602   30.1709 C   0  0  0  0  0  0
   27.4047    1.7754   30.2033 C   0  0  0  0  0  0
   30.3338    2.1816   19.4793 H   0  0  0  0  0  0
   41.1963    2.5759   25.7412 H   0  0  0  0  0  0
  1  2  2  0  0  0
  1 16  1  0  0  0
  2  3  1  0  0  0
  3  4  1  0  0  0
  3  5  2  0  0  0
  4 35  1  0  0  0
  5  6  1  0  0  0
  6  7  1  0  0  0
  6 16  2  0  0  0
  7  8  1  0  0  0
  8  9  1  0  0  0
  8 17  2  0  0  0
  9 10  2  0  0  0
  9 15  1  0  0  0
 10 11  1  0  0  0
 11 12  2  0  0  0
 12 13  1  0  0  0
 12 14  1  0  0  0
 13 36  1  0  0  0
 14 15  2  0  0  0
 16 17  1  0  0  0
 17 18  1  0  0  0
 18 19  2  0  0  0
 18 20  1  0  0  0
 20 21  2  0  0  0
 20 25  1  0  0  0
 21 22  1  0  0  0
 22 23  2  0  0  0
 23 24  1  0  0  0
 23 26  1  0  0  0
 24 25  2  0  0  0
 26 27  1  0  0  0
 27 28  1  0  0  0
 28 29  1  0  0  0
 29 30  1  0  0  0
 29 34  1  0  0  0
 30 31  1  0  0  0
 31 32  1  0  0  0
 32 33  1  0  0  0
 33 34  1  0  0  0
M  END
>  <CHROM.0>
175.51122381,114.30615243,122.42930591,63.58547993

>  <CHROM.1>
177.26528017,176.34026874,-179.98026782,-68.57660812,8.85209854,-13.30494305
74.16770112,169.00654668,48.75889745,33.06418863,1.42659187,25.56912103,0.59387982
0.09999347,-1.57061505

>  <FORMUL>
      RAL    C28 H27 N1 O4 S1

>  <HET>
 RAL  A 600      34

>  <HETNAM>
     RAL RALOXIFENE

>  <Name>
RAL.pdb

>  <RI>
0

>  <Rbt.Current_Directory>
/home/malgorzata/Desktop/rDOCK_IFD/Wyniki/6_estrogen_receptor/IFD

>  <Rbt.Executable>
rbdock ($Id: //depot/dev/client3/rdock/2013.1/src/exe/rbdock.cxx#4 $)

>  <Rbt.Library>
libRbt.so (2013.1, Build901 2013/11/27)

>  <Rbt.Parameter_File>
/home/malgorzata/Desktop/rDock_2013.1_src/data/scripts/dock.prm

>  <Rbt.Receptor>
cavity.prm

>  <SCORE>
-23.423

>  <SCORE.INTER>
-18.7316

>  <SCORE.INTER.CONST>
1

>  <SCORE.INTER.POLAR>
-1.01851

>  <SCORE.INTER.REPUL>
0

>  <SCORE.INTER.ROT>
7

>  <SCORE.INTER.VDW>
-27.6687

>  <SCORE.INTER.norm>
-0.55093

>  <SCORE.INTRA>
-0.972209

>  <SCORE.INTRA.DIHEDRAL>
-6.05463

>  <SCORE.INTRA.DIHEDRAL.0>
18.358

>  <SCORE.INTRA.POLAR>
0

>  <SCORE.INTRA.POLAR.0>
0

>  <SCORE.INTRA.REPUL>
0

>  <SCORE.INTRA.REPUL.0>
0

>  <SCORE.INTRA.VDW>
2.05511

>  <SCORE.INTRA.VDW.0>
-1.94569

>  <SCORE.INTRA.norm>
-0.0285944

>  <SCORE.RESTR>
0

>  <SCORE.RESTR.CAVITY>
0

>  <SCORE.RESTR.norm>
0

>  <SCORE.SYSTEM>
-3.71917

>  <SCORE.SYSTEM.CONST>
0

>  <SCORE.SYSTEM.DIHEDRAL>
1.26915

>  <SCORE.SYSTEM.POLAR>
-0.817169

>  <SCORE.SYSTEM.VDW>
-1.57537

>  <SCORE.SYSTEM.norm>
-0.109387

>  <SCORE.heavy>
34

>  <SCORE.norm>
-0.688911

$$$$
RAL.pdb
  rDOCK(R)          3D
libRbt.so/2013.1/901 2013/11/27
 36 40  0  0  0  0  0  0  0  0999 V2000
   32.4358   -1.0092   20.9474 C   0  0  0  0  0  0
   31.1505   -0.6397   20.6452 C   0  0  0  0  0  0
   30.3487    0.0210   21.5336 C   0  0  0  0  0  0
   29.0923    0.3606   21.0976 O   0  0  0  0  0  0
   30.8539    0.3539   22.7956 C   0  0  0  0  0  0
   32.1528    0.0127   23.0819 C   0  0  0  0  0  0
   33.0104    0.2192   24.4794 S   0  0  0  0  0  0
   34.4666   -0.4640   23.9674 C   0  0  0  0  0  0
   35.6491   -0.6504   24.8555 C   0  0  0  0  0  0
   35.6621    0.1342   25.9923 C   0  0  0  0  0  0
   36.6871   -0.0495   26.9061 C   0  0  0  0  0  0
   37.6995   -0.9613   26.6803 C   0  0  0  0  0  0
   38.6869   -1.0790   27.6601 O   0  0  0  0  0  0
   37.6599   -1.7757   25.5677 C   0  0  0  0  0  0
   36.6188   -1.5959   24.6652 C   0  0  0  0  0  0
   32.9601   -0.6906   22.1429 C   0  0  0  0  0  0
   34.2831   -0.9867   22.6698 C   0  0  0  0  0  0
   35.2269   -1.6928   21.9485 C   0  0  0  0  0  0
   36.3908   -1.2754   21.9014 O   0  0  0  0  0  0
   34.9088   -2.9219   21.2134 C   0  0  0  0  0  0
   34.0252   -3.8451   21.7352 C   0  0  0  0  0  0
   33.7155   -5.0189   21.0759 C   0  0  0  0  0  0
   34.3402   -5.2883   19.8594 C   0  0  0  0  0  0
   35.2214   -4.3665   19.3230 C   0  0  0  0  0  0
   35.4930   -3.1851   19.9925 C   0  0  0  0  0  0
   34.2035   -6.3724   19.0437 O   0  0  0  0  0  0
   35.0454   -7.4822   19.3168 C   0  0  0  0  0  0
   36.4885   -7.1094   19.1045 C   0  0  0  0  0  0
   37.1148   -6.4979   17.9481 N   0  0  0  0  0  0
   37.2421   -7.5133   16.8832 C   0  0  0  0  0  0
   37.7571   -6.9487   15.5439 C   0  0  0  0  0  0
   39.1676   -6.3978   15.8087 C   0  0  0  0  0  0
   38.9284   -5.2172   16.7995 C   0  0  0  0  0  0
   38.4215   -5.8323   18.1156 C   0  0  0  0  0  0
   28.5244    0.8617   21.6492 H   0  0  0  0  0  0
   38.7632   -0.4273   28.3291 H   0  0  0  0  0  0
  1  2  2  0  0  0
  1 16  1  0  0  0
  2  3  1  0  0  0
  3  4  1  0  0  0
  3  5  2  0  0  0
  4 35  1  0  0  0
  5  6  1  0  0  0
  6  7  1  0  0  0
  6 16  2  0  0  0
  7  8  1  0  0  0
  8  9  1  0  0  0
  8 17  2  0  0  0
  9 10  2  0  0  0
  9 15  1  0  0  0
 10 11  1  0  0  0
 11 12  2  0  0  0
 12 13  1  0  0  0
 12 14  1  0  0  0
 13 36  1  0  0  0
 14 15  2  0  0  0
 16 17  1  0  0  0
 17 18  1  0  0  0
 18 19  2  0  0  0
 18 20  1  0  0  0
 20 21  2  0  0  0
 20 25  1  0  0  0
 21 22  1  0  0  0
 22 23  2  0  0  0
 23 24  1  0  0  0
 23 26  1  0  0  0
 24 25  2  0  0  0
 26 27  1  0  0  0
 27 28  1  0  0  0
 28 29  1  0  0  0
 29 30  1  0  0  0
 29 34  1  0  0  0
 30 31  1  0  0  0
 31 32  1  0  0  0
 32 33  1  0  0  0
 33 34  1  0  0  0
M  END
>  <CHROM.0>
168.44373541,92.35534969,-112.57627342,66.52326280

>  <CHROM.1>
-176.12134827,-19.86706230,-14.13363972,-45.58980994,-38.13990478,-87.26813945
-64.27563289,-52.16516728,-75.06792278,35.04922263,-2.75905867,21.56968232
1.90431769,-0.39025952,0.96661985

>  <FORMUL>
      RAL    C28 H27 N1 O4 S1

>  <HET>
 RAL  A 600      34

>  <HETNAM>
     RAL RALOXIFENE

>  <Name>
RAL.pdb

>  <RI>
0

>  <Rbt.Current_Directory>
/home/malgorzata/Desktop/rDOCK_IFD/Wyniki/6_estrogen_receptor/IFD

>  <Rbt.Executable>
rbdock ($Id: //depot/dev/client3/rdock/2013.1/src/exe/rbdock.cxx#4 $)

>  <Rbt.Library>
libRbt.so (2013.1, Build901 2013/11/27)

>  <Rbt.Parameter_File>
/home/malgorzata/Desktop/rDock_2013.1_src/data/scripts/dock.prm

>  <Rbt.Receptor>
cavity.prm

>  <SCORE>
-9.39178

>  <SCORE.INTER>
-4.90197

>  <SCORE.INTER.CONST>
1

>  <SCORE.INTER.POLAR>
0

>  <SCORE.INTER.REPUL>
0

>  <SCORE.INTER.ROT>
7

>  <SCORE.INTER.VDW>
-17.302

>  <SCORE.INTER.norm>
-0.144175

>  <SCORE.INTRA>
-0.525335

>  <SCORE.INTRA.DIHEDRAL>
-0.763034

>  <SCORE.INTRA.DIHEDRAL.0>
18.358

>  <SCORE.INTRA.POLAR>
0

>  <SCORE.INTRA.POLAR.0>
0

>  <SCORE.INTRA.REPUL>
0

>  <SCORE.INTRA.REPUL.0>
0

>  <SCORE.INTRA.VDW>
-0.143818

>  <SCORE.INTRA.VDW.0>
-1.94569

>  <SCORE.INTRA.norm>
-0.015451

>  <SCORE.RESTR>
0

>  <SCORE.RESTR.CAVITY>
0

>  <SCORE.RESTR.norm>
0

>  <SCORE.SYSTEM>
-3.96448

>  <SCORE.SYSTEM.CONST>
0

>  <SCORE.SYSTEM.DIHEDRAL>
1.41407

>  <SCORE.SYSTEM.POLAR>
-0.838449

>  <SCORE.SYSTEM.VDW>
-1.82079

>  <SCORE.SYSTEM.norm>
-0.116602

>  <SCORE.heavy>
34

>  <SCORE.norm>
-0.276229

$$$$
RAL.pdb
  rDOCK(R)          3D
libRbt.so/2013.1/901 2013/11/27
 36 40  0  0  0  0  0  0  0  0999 V2000
   33.1290    2.2380   30.4597 C   0  0  0  0  0  0
   34.2579    2.7074   31.0803 C   0  0  0  0  0  0
   34.2116    3.6309   32.0871 C   0  0  0  0  0  0
   35.4110    3.9964   32.6456 O   0  0  0  0  0  0
   32.9700    4.1091   32.5212 C   0  0  0  0  0  0
   31.8401    3.6109   31.9206 C   0  0  0  0  0  0
   30.2551    4.0059   32.1712 S   0  0  0  0  0  0
   29.5669    2.9492   31.0491 C   0  0  0  0  0  0
   28.1086    2.9034   30.7438 C   0  0  0  0  0  0
   27.4698    1.7296   31.0931 C   0  0  0  0  0  0
   26.0977    1.6507   30.9179 C   0  0  0  0  0  0
   25.3794    2.6959   30.3712 C   0  0  0  0  0  0
   24.0003    2.5255   30.2373 O   0  0  0  0  0  0
   26.0116    3.8833   30.0661 C   0  0  0  0  0  0
   27.3853    3.9590   30.2609 C   0  0  0  0  0  0
   31.9189    2.6613   30.8622 C   0  0  0  0  0  0
   30.6066    2.3052   30.3456 C   0  0  0  0  0  0
   30.4385    1.4266   29.2924 C   0  0  0  0  0  0
   29.3382    0.8862   29.1235 O   0  0  0  0  0  0
   31.5196    1.0871   28.3606 C   0  0  0  0  0  0
   31.8855   -0.2281   28.1566 C   0  0  0  0  0  0
   32.9086   -0.5806   27.2978 C   0  0  0  0  0  0
   33.6095    0.4295   26.6413 C   0  0  0  0  0  0
   33.2462    1.7507   26.8319 C   0  0  0  0  0  0
   32.1986    2.0741   27.6780 C   0  0  0  0  0  0
   34.6509    0.3256   25.7671 O   0  0  0  0  0  0
   34.3431    0.4890   24.3911 C   0  0  0  0  0  0
   33.4246   -0.6095   23.9261 C   0  0  0  0  0  0
   32.7226   -0.7422   22.6640 N   0  0  0  0  0  0
   31.5992    0.2164   22.6410 C   0  0  0  0  0  0
   30.8635    0.2800   21.2873 C   0  0  0  0  0  0
   30.2672   -1.1153   21.0416 C   0  0  0  0  0  0
   31.5173   -2.0367   20.8976 C   0  0  0  0  0  0
   32.2105   -2.0695   22.2709 C   0  0  0  0  0  0
   36.2122    3.6549   32.3000 H   0  0  0  0  0  0
   23.4851    3.1865   29.8181 H   0  0  0  0  0  0
  1  2  2  0  0  0
  1 16  1  0  0  0
  2  3  1  0  0  0
  3  4  1  0  0  0
  3  5  2  0  0  0
  4 35  1  0  0  0
  5  6  1  0  0  0
  6  7  1  0  0  0
  6 16  2  0  0  0
  7  8  1  0  0  0
  8  9  1  0  0  0
  8 17  2  0  0  0
  9 10  2  0  0  0
  9 15  1  0  0  0
 10 11  1  0  0  0
 11 12  2  0  0  0
 12 13  1  0  0  0
 12 14  1  0  0  0
 13 36  1  0  0  0
 14 15  2  0  0  0
 16 17  1  0  0  0
 17 18  1  0  0  0
 18 19  2  0  0  0
 18 20  1  0  0  0
 20 21  2  0  0  0
 20 25  1  0  0  0
 21 22  1  0  0  0
 22 23  2  0  0  0
 23 24  1  0  0  0
 23 26  1  0  0  0
 24 25  2  0  0  0
 26 27  1  0  0  0
 27 28  1  0  0  0
 28 29  1  0  0  0
 29 30  1  0  0  0
 29 34  1  0  0  0
 30 31  1  0  0  0
 31 32  1  0  0  0
 32 33  1  0  0  0
 33 34  1  0  0  0
M  END
>  <CHROM.0>
-124.56640786,168.04411343,-101.82356372,173.66346820

>  <CHROM.1>
3.62167243,-114.81388515,-175.84606007,-18.71524812,124.54874430,102.39164621
-63.98255418,171.08077049,-73.54937183,31.02377899,1.62294949,28.21587400
-1.86476733,0.01244840,-1.99640987

>  <FORMUL>
      RAL    C28 H27 N1 O4 S1

>  <HET>
 RAL  A 600      34

>  <HETNAM>
     RAL RALOXIFENE

>  <Name>
RAL.pdb

>  <RI>
0

>  <Rbt.Current_Directory>
/home/malgorzata/Desktop/rDOCK_IFD/Wyniki/6_estrogen_receptor/IFD

>  <Rbt.Executable>
rbdock ($Id: //depot/dev/client3/rdock/2013.1/src/exe/rbdock.cxx#4 $)

>  <Rbt.Library>
libRbt.so (2013.1, Build901 2013/11/27)

>  <Rbt.Parameter_File>
/home/malgorzata/Desktop/rDock_2013.1_src/data/scripts/dock.prm

>  <Rbt.Receptor>
cavity.prm

>  <SCORE>
-11.8669

>  <SCORE.INTER>
-15.8283

>  <SCORE.INTER.CONST>
1

>  <SCORE.INTER.POLAR>
-0.502103

>  <SCORE.INTER.REPUL>
0

>  <SCORE.INTER.ROT>
7

>  <SCORE.INTER.VDW>
-26.5212

>  <SCORE.INTER.norm>
-0.465539

>  <SCORE.INTRA>
4.16945

>  <SCORE.INTRA.DIHEDRAL>
7.61588

>  <SCORE.INTRA.DIHEDRAL.0>
18.358

>  <SCORE.INTRA.POLAR>
0

>  <SCORE.INTRA.POLAR.0>
0

>  <SCORE.INTRA.REPUL>
0

>  <SCORE.INTRA.REPUL.0>
0

>  <SCORE.INTRA.VDW>
0.36151

>  <SCORE.INTRA.VDW.0>
-1.94569

>  <SCORE.INTRA.norm>
0.122631

>  <SCORE.RESTR>
0.0188023

>  <SCORE.RESTR.CAVITY>
0.0188023

>  <SCORE.RESTR.norm>
0.000553008

>  <SCORE.SYSTEM>
-0.226869

>  <SCORE.SYSTEM.CONST>
0

>  <SCORE.SYSTEM.DIHEDRAL>
1.4022

>  <SCORE.SYSTEM.VDW>
-0.92797

>  <SCORE.SYSTEM.norm>
-0.00667261

>  <SCORE.heavy>
34

>  <SCORE.norm>
-0.349027

$$$$
RAL.pdb
  rDOCK(R)          3D
libRbt.so/2013.1/901 2013/11/27
 36 40  0  0  0  0  0  0  0  0999 V2000
   30.1976    3.2728   30.2460 C   0  0  0  0  0  0
   30.6827    4.4764   30.6886 C   0  0  0  0  0  0
   29.8659    5.4765   31.1373 C   0  0  0  0  0  0
   30.4784    6.6219   31.5811 O   0  0  0  0  0  0
   28.4822    5.2689   31.1674 C   0  0  0  0  0  0
   28.0030    4.0497   30.7557 C   0  0  0  0  0  0
   26.4419    3.5225   30.6279 S   0  0  0  0  0  0
   26.7631    1.9641   30.0643 C   0  0  0  0  0  0
   25.7031    0.9944   29.6670 C   0  0  0  0  0  0
   24.5037    1.1236   30.3399 C   0  0  0  0  0  0
   23.4465    0.3124   29.9607 C   0  0  0  0  0  0
   23.5852   -0.6342   28.9647 C   0  0  0  0  0  0
   22.4631   -1.4023   28.6491 O   0  0  0  0  0  0
   24.7690   -0.7300   28.2631 C   0  0  0  0  0  0
   25.8185    0.0993   28.6393 C   0  0  0  0  0  0
   28.8762    3.0316   30.2772 C   0  0  0  0  0  0
   28.1530    1.8426   29.8542 C   0  0  0  0  0  0
   28.7903    0.7381   29.3216 C   0  0  0  0  0  0
   28.3404   -0.3913   29.5523 O   0  0  0  0  0  0
   29.9994    0.8394   28.4970 C   0  0  0  0  0  0
   30.9815   -0.1282   28.5663 C   0  0  0  0  0  0
   32.1383   -0.0551   27.8147 C   0  0  0  0  0  0
   32.3280    1.0474   26.9834 C   0  0  0  0  0  0
   31.3469    2.0192   26.8998 C   0  0  0  0  0  0
   30.1846    1.9071   27.6443 C   0  0  0  0  0  0
   33.3811    1.3385   26.1675 O   0  0  0  0  0  0
   34.5728    0.5972   26.3807 C   0  0  0  0  0  0
   35.7243    1.2362   25.6512 C   0  0  0  0  0  0
   35.8564    1.5424   24.2398 N   0  0  0  0  0  0
   37.1766    2.1628   24.0088 C   0  0  0  0  0  0
   37.5012    2.3982   22.5198 C   0  0  0  0  0  0
   36.4452    3.3798   21.9864 C   0  0  0  0  0  0
   35.1072    2.5858   22.0954 C   0  0  0  0  0  0
   34.8279    2.3818   23.5947 C   0  0  0  0  0  0
   29.9756    7.2859   32.0103 H   0  0  0  0  0  0
   21.6654   -1.2847   29.1265 H   0  0  0  0  0  0
  1  2  2  0  0  0
  1 16  1  0  0  0
  2  3  1  0  0  0
  3  4  1  0  0  0
  3  5  2  0  0  0
  4 35  1  0  0  0
  5  6  1  0  0  0
  6  7  1  0  0  0
  6 16  2  0  0  0
  7  8  1  0  0  0
  8  9  1  0  0  0
  8 17  2  0  0  0
  9 10  2  0  0  0
  9 15  1  0  0  0
 10 11  1  0  0  0
 11 12  2  0  0  0
 12 13  1  0  0  0
 12 14  1  0  0  0
 13 36  1  0  0  0
 14 15  2  0  0  0
 16 17  1  0  0  0
 17 18  1  0  0  0
 18 19  2  0  0  0
 18 20  1  0  0  0
 20 21  2  0  0  0
 20 25  1  0  0  0
 21 22  1  0  0  0
 22 23  2  0  0  0
 23 24  1  0  0  0
 23 26  1  0  0  0
 24 25  2  0  0  0
 26 27  1  0  0  0
 27 28  1  0  0  0
 28 29  1  0  0  0
 29 30  1  0  0  0
 29 34  1  0  0  0
 30 31  1  0  0  0
 31 32  1  0  0  0
 32 33  1  0  0  0
 33 34  1  0  0  0
M  END
>  <CHROM.0>
-87.67810413,151.82418606,81.00205050,65.49902397

>  <CHROM.1>
-171.28225010,-30.16234061,-2.03323951,-33.52183743,145.06552129,-15.01735740
-166.57972818,-56.71343282,-179.77718560,30.02465481,1.91545231,28.05940942
-2.84692441,-0.44644406,-2.40619457

>  <FORMUL>
      RAL    C28 H27 N1 O4 S1

>  <HET>
 RAL  A 600      34

>  <HETNAM>
     RAL RALOXIFENE

>  <Name>
RAL.pdb

>  <RI>
0

>  <Rbt.Current_Directory>
/home/malgorzata/Desktop/rDOCK_IFD/Wyniki/6_estrogen_receptor/IFD

>  <Rbt.Executable>
rbdock ($Id: //depot/dev/client3/rdock/2013.1/src/exe/rbdock.cxx#4 $)

>  <Rbt.Library>
libRbt.so (2013.1, Build901 2013/11/27)

>  <Rbt.Parameter_File>
/home/malgorzata/Desktop/rDock_2013.1_src/data/scripts/dock.prm

>  <Rbt.Receptor>
cavity.prm

>  <SCORE>
-20.4117

>  <SCORE.INTER>
-14.3743

>  <SCORE.INTER.CONST>
1

>  <SCORE.INTER.POLAR>
-0.863009

>  <SCORE.INTER.REPUL>
0

>  <SCORE.INTER.ROT>
7

>  <SCORE.INTER.VDW>
-23.8401

>  <SCORE.INTER.norm>
-0.422775

>  <SCORE.INTRA>
-2.43917

>  <SCORE.INTRA.DIHEDRAL>
-6.68589

>  <SCORE.INTRA.DIHEDRAL.0>
18.358

>  <SCORE.INTRA.POLAR>
0

>  <SCORE.INTRA.POLAR.0>
0

>  <SCORE.INTRA.REPUL>
0

>  <SCORE.INTRA.REPUL.0>
0

>  <SCORE.INTRA.VDW>
0.903771

>  <SCORE.INTRA.VDW.0>
-1.94569

>  <SCORE.INTRA.norm>
-0.0717403

>  <SCORE.RESTR>
0

>  <SCORE.RESTR.CAVITY>
0

>  <SCORE.RESTR.norm>
0

>  <SCORE.SYSTEM>
-3.59818

>  <SCORE.SYSTEM.CONST>
0

>  <SCORE.SYSTEM.DIHEDRAL>
1.35205

>  <SCORE.SYSTEM.POLAR>
-0.833414

>  <SCORE.SYSTEM.VDW>
-1.4406

>  <SCORE.SYSTEM.norm>
-0.105829

>  <SCORE.heavy>
34

>  <SCORE.norm>
-0.600344

$$$$
RAL.pdb
  rDOCK(R)          3D
libRbt.so/2013.1/901 2013/11/27
 36 40  0  0  0  0  0  0  0  0999 V2000
   26.0138    0.0107   28.3472 C   0  0  0  0  0  0
   24.7373   -0.1699   27.8805 C   0  0  0  0  0  0
   23.7469    0.7516   28.0769 C   0  0  0  0  0  0
   22.5197    0.4648   27.5333 O   0  0  0  0  0  0
   24.0396    1.9358   28.7632 C   0  0  0  0  0  0
   25.3275    2.1282   29.1989 C   0  0  0  0  0  0
   25.9671    3.3794   30.0687 S   0  0  0  0  0  0
   27.5567    2.8183   30.1580 C   0  0  0  0  0  0
   28.6337    3.5059   30.9255 C   0  0  0  0  0  0
   29.8069    2.7903   31.0652 C   0  0  0  0  0  0
   30.8799    3.4031   31.6919 C   0  0  0  0  0  0
   30.7810    4.6813   32.2053 C   0  0  0  0  0  0
   31.9165    5.2168   32.8160 O   0  0  0  0  0  0
   29.6244    5.4107   32.0241 C   0  0  0  0  0  0
   28.5592    4.7939   31.3795 C   0  0  0  0  0  0
   26.3356    1.1432   28.9949 C   0  0  0  0  0  0
   27.6109    1.5349   29.5744 C   0  0  0  0  0  0
   28.7263    0.7203   29.5299 C   0  0  0  0  0  0
   28.8266   -0.2146   30.3343 O   0  0  0  0  0  0
   29.8193    0.9214   28.5722 C   0  0  0  0  0  0
   30.9077    0.0725   28.5584 C   0  0  0  0  0  0
   31.9601    0.2427   27.6799 C   0  0  0  0  0  0
   31.9308    1.3245   26.8016 C   0  0  0  0  0  0
   30.8413    2.1771   26.8011 C   0  0  0  0  0  0
   29.7871    1.9672   27.6742 C   0  0  0  0  0  0
   32.8489    1.6971   25.8647 O   0  0  0  0  0  0
   33.6872    0.6714   25.3547 C   0  0  0  0  0  0
   32.9138   -0.2208   24.4207 C   0  0  0  0  0  0
   32.2149    0.1222   23.1970 N   0  0  0  0  0  0
   31.6778   -1.1139   22.5932 C   0  0  0  0  0  0
   30.7818   -0.8666   21.3628 C   0  0  0  0  0  0
   31.6658   -0.1956   20.2991 C   0  0  0  0  0  0
   32.0429    1.1767   20.9372 C   0  0  0  0  0  0
   32.9367    0.8753   22.1528 C   0  0  0  0  0  0
   21.8319    1.1003   27.5676 H   0  0  0  0  0  0
   32.6878    4.6934   32.9118 H   0  0  0  0  0  0
  1  2  2  0  0  0
  1 16  1  0  0  0
  2  3  1  0  0  0
  3  4  1  0  0  0
  3  5  2  0  0  0
  4 35  1  0  0  0
  5  6  1  0  0  0
  6  7  1  0  0  0
  6 16  2  0  0  0
  7  8  1  0  0  0
  8  9  1  0  0  0
  8 17  2  0  0  0
  9 10  2  0  0  0
  9 15  1  0  0  0
 10 11  1  0  0  0
 11 12  2  0  0  0
 12 13  1  0  0  0
 12 14  1  0  0  0
 13 36  1  0  0  0
 14 15  2  0  0  0
 16 17  1  0  0  0
 17 18  1  0  0  0
 18 19  2  0  0  0
 18 20  1  0  0  0
 20 21  2  0  0  0
 20 25  1  0  0  0
 21 22  1  0  0  0
 22 23  2  0  0  0
 23 24  1  0  0  0
 23 26  1  0  0  0
 24 25  2  0  0  0
 26 27  1  0  0  0
 27 28  1  0  0  0
 28 29  1  0  0  0
 29 30  1  0  0  0
 29 34  1  0  0  0
 30 31  1  0  0  0
 31 32  1  0  0  0
 32 33  1  0  0  0
 33 34  1  0  0  0
M  END
>  <CHROM.0>
-100.86479820,126.06041895,127.48184037,66.08526681

>  <CHROM.1>
-174.04753161,169.78266338,-3.73958607,101.13744311,-179.37551945,25.02859598
73.58175365,59.27996352,176.57903995,29.26626340,1.61394305,27.74680348,2.13064845
0.17759256,1.12161419

>  <FORMUL>
      RAL    C28 H27 N1 O4 S1

>  <HET>
 RAL  A 600      34

>  <HETNAM>
     RAL RALOXIFENE

>  <Name>
RAL.pdb

>  <RI>
0

>  <Rbt.Current_Directory>
/home/malgorzata/Desktop/rDOCK_IFD/Wyniki/6_estrogen_receptor/IFD

>  <Rbt.Executable>
rbdock ($Id: //depot/dev/client3/rdock/2013.1/src/exe/rbdock.cxx#4 $)

>  <Rbt.Library>
libRbt.so (2013.1, Build901 2013/11/27)

>  <Rbt.Parameter_File>
/home/malgorzata/Desktop/rDock_2013.1_src/data/scripts/dock.prm

>  <Rbt.Receptor>
cavity.prm

>  <SCORE>
-23.0036

>  <SCORE.INTER>
-16.9409

>  <SCORE.INTER.CONST>
1

>  <SCORE.INTER.POLAR>
0

>  <SCORE.INTER.REPUL>
0

>  <SCORE.INTER.ROT>
7

>  <SCORE.INTER.VDW>
-29.3409

>  <SCORE.INTER.norm>
-0.498263

>  <SCORE.INTRA>
-2.29011

>  <SCORE.INTRA.DIHEDRAL>
-5.15205

>  <SCORE.INTRA.DIHEDRAL.0>
18.358

>  <SCORE.INTRA.POLAR>
0

>  <SCORE.INTRA.POLAR.0>
0

>  <SCORE.INTRA.REPUL>
0

>  <SCORE.INTRA.REPUL.0>
0

>  <SCORE.INTRA.VDW>
0.285912

>  <SCORE.INTRA.VDW.0>
-1.94569

>  <SCORE.INTRA.norm>
-0.0673563

>  <SCORE.RESTR>
0

>  <SCORE.RESTR.CAVITY>
0

>  <SCORE.RESTR.norm>
0

>  <SCORE.SYSTEM>
-3.77256

>  <SCORE.SYSTEM.CONST>
0

>  <SCORE.SYSTEM.DIHEDRAL>
1.38644

>  <SCORE.SYSTEM.POLAR>
-0.83763

>  <SCORE.SYSTEM.VDW>
-1.61784

>  <SCORE.SYSTEM.norm>
-0.110958

>  <SCORE.heavy>
34

>  <SCORE.norm>
-0.676577

$$$$
RAL.pdb
  rDOCK(R)          3D
libRbt.so/2013.1/901 2013/11/27
 36 40  0  0  0  0  0  0  0  0999 V2000
   29.8958   -0.3808   28.5206 C   0  0  0  0  0  0
   28.5391   -0.5711   28.4651 C   0  0  0  0  0  0
   27.6598    0.2063   29.1660 C   0  0  0  0  0  0
   26.3252   -0.0682   29.0008 O   0  0  0  0  0  0
   28.1502    1.2498   29.9593 C   0  0  0  0  0  0
   29.5071    1.4588   29.9851 C   0  0  0  0  0  0
   30.3848    2.5603   30.8496 S   0  0  0  0  0  0
   31.9197    2.1281   30.2957 C   0  0  0  0  0  0
   33.1826    2.7365   30.8025 C   0  0  0  0  0  0
   33.0222    3.7008   31.7784 C   0  0  0  0  0  0
   34.1571    4.2461   32.3565 C   0  0  0  0  0  0
   35.4233    3.8745   31.9491 C   0  0  0  0  0  0
   36.5063    4.4757   32.5929 O   0  0  0  0  0  0
   35.5814    2.8788   31.0077 C   0  0  0  0  0  0
   34.4374    2.3258   30.4455 C   0  0  0  0  0  0
   30.4013    0.6225   29.2577 C   0  0  0  0  0  0
   31.7919    0.9962   29.4631 C   0  0  0  0  0  0
   32.8384    0.3034   28.8848 C   0  0  0  0  0  0
   33.6390   -0.3012   29.6091 O   0  0  0  0  0  0
   33.0583    0.2612   27.4349 C   0  0  0  0  0  0
   32.2825    1.0214   26.5832 C   0  0  0  0  0  0
   32.4537    0.9935   25.2127 C   0  0  0  0  0  0
   33.4225    0.1472   24.6762 C   0  0  0  0  0  0
   34.2115   -0.6132   25.5208 C   0  0  0  0  0  0
   34.0365   -0.5454   26.8928 C   0  0  0  0  0  0
   33.7601   -0.0555   23.3707 O   0  0  0  0  0  0
   33.5592    1.0366   22.4864 C   0  0  0  0  0  0
   34.2537    0.7829   21.1750 C   0  0  0  0  0  0
   33.9972   -0.2488   20.1884 N   0  0  0  0  0  0
   32.9087    0.2036   19.2986 C   0  0  0  0  0  0
   32.6430   -0.7426   18.1104 C   0  0  0  0  0  0
   32.2037   -2.0896   18.7068 C   0  0  0  0  0  0
   33.4644   -2.5859   19.4794 C   0  0  0  0  0  0
   33.6825   -1.6142   20.6523 C   0  0  0  0  0  0
   26.0557   -0.7488   28.4159 H   0  0  0  0  0  0
   36.3602    5.1632   33.2127 H   0  0  0  0  0  0
  1  2  2  0  0  0
  1 16  1  0  0  0
  2  3  1  0  0  0
  3  4  1  0  0  0
  3  5  2  0  0  0
  4 35  1  0  0  0
  5  6  1  0  0  0
  6  7  1  0  0  0
  6 16  2  0  0  0
  7  8  1  0  0  0
  8  9  1  0  0  0
  8 17  2  0  0  0
  9 10  2  0  0  0
  9 15  1  0  0  0
 10 11  1  0  0  0
 11 12  2  0  0  0
 12 13  1  0  0  0
 12 14  1  0  0  0
 13 36  1  0  0  0
 14 15  2  0  0  0
 16 17  1  0  0  0
 17 18  1  0  0  0
 18 19  2  0  0  0
 18 20  1  0  0  0
 20 21  2  0  0  0
 20 25  1  0  0  0
 21 22  1  0  0  0
 22 23  2  0  0  0
 23 24  1  0  0  0
 23 26  1  0  0  0
 24 25  2  0  0  0
 26 27  1  0  0  0
 27 28  1  0  0  0
 28 29  1  0  0  0
 29 30  1  0  0  0
 29 34  1  0  0  0
 30 31  1  0  0  0
 31 32  1  0  0  0
 32 33  1  0  0  0
 33 34  1  0  0  0
M  END
>  <CHROM.0>
159.69713970,108.23231660,-70.77119177,65.50522680

>  <CHROM.1>
-1.24205855,0.00919146,-5.92658036,65.31134083,5.78857311,28.87715697,167.18051618
64.09703706,84.52492388,32.39074640,0.88008028,26.94197928,1.65437681,0.29310475
1.25054974

>  <FORMUL>
      RAL    C28 H27 N1 O4 S1

>  <HET>
 RAL  A 600      34

>  <HETNAM>
     RAL RALOXIFENE

>  <Name>
RAL.pdb

>  <RI>
0

>  <Rbt.Current_Directory>
/home/malgorzata/Desktop/rDOCK_IFD/Wyniki/6_estrogen_receptor/IFD

>  <Rbt.Executable>
rbdock ($Id: //depot/dev/client3/rdock/2013.1/src/exe/rbdock.cxx#4 $)

>  <Rbt.Library>
libRbt.so (2013.1, Build901 2013/11/27)

>  <Rbt.Parameter_File>
/home/malgorzata/Desktop/rDock_2013.1_src/data/scripts/dock.prm

>  <Rbt.Receptor>
cavity.prm

>  <SCORE>
-16.2916

>  <SCORE.INTER>
-10.0871

>  <SCORE.INTER.CONST>
1

>  <SCORE.INTER.POLAR>
0

>  <SCORE.INTER.REPUL>
0

>  <SCORE.INTER.ROT>
7

>  <SCORE.INTER.VDW>
-22.4871

>  <SCORE.INTER.norm>
-0.29668

>  <SCORE.INTRA>
-2.36237

>  <SCORE.INTRA.DIHEDRAL>
-5.85038

>  <SCORE.INTRA.DIHEDRAL.0>
18.358

>  <SCORE.INTRA.POLAR>
0

>  <SCORE.INTRA.POLAR.0>
0

>  <SCORE.INTRA.REPUL>
0

>  <SCORE.INTRA.REPUL.0>
0

>  <SCORE.INTRA.VDW>
0.562818

>  <SCORE.INTRA.VDW.0>
-1.94569

>  <SCORE.INTRA.norm>
-0.0694815

>  <SCORE.RESTR>
0

>  <SCORE.RESTR.CAVITY>
0

>  <SCORE.RESTR.norm>
0

>  <SCORE.SYSTEM>
-3.84215

>  <SCORE.SYSTEM.CONST>
0

>  <SCORE.SYSTEM.DIHEDRAL>
1.35446

>  <SCORE.SYSTEM.POLAR>
-0.833461

>  <SCORE.SYSTEM.VDW>
-1.68561

>  <SCORE.SYSTEM.norm>
-0.113004

>  <SCORE.heavy>
34

>  <SCORE.norm>
-0.479166

$$$$
RAL.pdb
  rDOCK(R)          3D
libRbt.so/2013.1/901 2013/11/27
 36 40  0  0  0  0  0  0  0  0999 V2000
   26.7813    0.7071   28.5413 C   0  0  0  0  0  0
   25.4418    0.9522   28.3818 C   0  0  0  0  0  0
   24.8162    2.0181   28.9661 C   0  0  0  0  0  0
   23.4774    2.1684   28.7035 O   0  0  0  0  0  0
   25.5644    2.9092   29.7437 C   0  0  0  0  0  0
   26.9120    2.6794   29.8727 C   0  0  0  0  0  0
   28.0404    3.5082   30.7509 S   0  0  0  0  0  0
   29.3870    2.5723   30.3505 C   0  0  0  0  0  0
   30.7435    2.7860   30.9300 C   0  0  0  0  0  0
   30.8923    3.9417   31.6718 C   0  0  0  0  0  0
   32.1014    4.1609   32.3118 C   0  0  0  0  0  0
   33.1539    3.2757   32.1873 C   0  0  0  0  0  0
   34.3318    3.5792   32.8725 O   0  0  0  0  0  0
   32.9884    2.1004   31.4845 C   0  0  0  0  0  0
   31.7667    1.8811   30.8599 C   0  0  0  0  0  0
   27.5344    1.5511   29.2664 C   0  0  0  0  0  0
   28.9554    1.4799   29.5687 C   0  0  0  0  0  0
   29.7584    0.4504   29.1162 C   0  0  0  0  0  0
   29.5379   -0.7047   29.5015 O   0  0  0  0  0  0
   30.8842    0.6646   28.2003 C   0  0  0  0  0  0
   31.8296   -0.3220   28.0046 C   0  0  0  0  0  0
   32.9095   -0.1470   27.1610 C   0  0  0  0  0  0
   33.0602    1.0771   26.5117 C   0  0  0  0  0  0
   32.1145    2.0703   26.6941 C   0  0  0  0  0  0
   31.0270    1.8581   27.5247 C   0  0  0  0  0  0
   34.0392    1.4802   25.6524 O   0  0  0  0  0  0
   34.0508    0.8683   24.3716 C   0  0  0  0  0  0
   34.3887   -0.5937   24.4929 C   0  0  0  0  0  0
   34.2332   -1.6530   23.5145 N   0  0  0  0  0  0
   35.0189   -1.3093   22.3121 C   0  0  0  0  0  0
   35.0580   -2.4299   21.2535 C   0  0  0  0  0  0
   33.6087   -2.6545   20.7928 C   0  0  0  0  0  0
   32.8882   -3.1866   22.0697 C   0  0  0  0  0  0
   32.8723   -2.0337   23.0886 C   0  0  0  0  0  0
   23.0887    3.0208   28.7243 H   0  0  0  0  0  0
   35.0572    2.9868   32.8425 H   0  0  0  0  0  0
  1  2  2  0  0  0
  1 16  1  0  0  0
  2  3  1  0  0  0
  3  4  1  0  0  0
  3  5  2  0  0  0
  4 35  1  0  0  0
  5  6  1  0  0  0
  6  7  1  0  0  0
  6 16  2  0  0  0
  7  8  1  0  0  0
  8  9  1  0  0  0
  8 17  2  0  0  0
  9 10  2  0  0  0
  9 15  1  0  0  0
 10 11  1  0  0  0
 11 12  2  0  0  0
 12 13  1  0  0  0
 12 14  1  0  0  0
 13 36  1  0  0  0
 14 15  2  0  0  0
 16 17  1  0  0  0
 17 18  1  0  0  0
 18 19  2  0  0  0
 18 20  1  0  0  0
 20 21  2  0  0  0
 20 25  1  0  0  0
 21 22  1  0  0  0
 22 23  2  0  0  0
 23 24  1  0  0  0
 23 26  1  0  0  0
 24 25  2  0  0  0
 26 27  1  0  0  0
 27 28  1  0  0  0
 28 29  1  0  0  0
 29 30  1  0  0  0
 29 34  1  0  0  0
 30 31  1  0  0  0
 31 32  1  0  0  0
 32 33  1  0  0  0
 33 34  1  0  0  0
M  END
>  <CHROM.0>
163.04158450,-76.73854554,132.15884712,66.25511964

>  <CHROM.1>
-152.10928382,-9.73247361,177.49881068,116.81490827,165.70484675,69.82157532
-66.66654093,165.17479629,59.25883756,30.83368312,1.10936306,27.88594150
2.17250985,0.00841648,1.05958344

>  <FORMUL>
      RAL    C28 H27 N1 O4 S1

>  <HET>
 RAL  A 600      34

>  <HETNAM>
     RAL RALOXIFENE

>  <Name>
RAL.pdb

>  <RI>
0

>  <Rbt.Current_Directory>
/home/malgorzata/Desktop/rDOCK_IFD/Wyniki/6_estrogen_receptor/IFD

>  <Rbt.Executable>
rbdock ($Id: //depot/dev/client3/rdock/2013.1/src/exe/rbdock.cxx#4 $)

>  <Rbt.Library>
libRbt.so (2013.1, Build901 2013/11/27)

>  <Rbt.Parameter_File>
/home/malgorzata/Desktop/rDock_2013.1_src/data/scripts/dock.prm

>  <Rbt.Receptor>
cavity.prm

>  <SCORE>
-18.9027

>  <SCORE.INTER>
-14.4001

>  <SCORE.INTER.CONST>
1

>  <SCORE.INTER.POLAR>
-0.788245

>  <SCORE.INTER.REPUL>
0

>  <SCORE.INTER.ROT>
7

>  <SCORE.INTER.VDW>
-24.12

>  <SCORE.INTER.norm>
-0.423531

>  <SCORE.INTRA>
-0.922561

>  <SCORE.INTRA.DIHEDRAL>
-1.98117

>  <SCORE.INTRA.DIHEDRAL.0>
18.358

>  <SCORE.INTRA.POLAR>
0

>  <SCORE.INTRA.POLAR.0>
0

>  <SCORE.INTRA.REPUL>
0

>  <SCORE.INTRA.REPUL.0>
0

>  <SCORE.INTRA.VDW>
0.0680225

>  <SCORE.INTRA.VDW.0>
-1.94569

>  <SCORE.INTRA.norm>
-0.0271342

>  <SCORE.RESTR>
0

>  <SCORE.RESTR.CAVITY>
0

>  <SCORE.RESTR.norm>
0

>  <SCORE.SYSTEM>
-3.58011

>  <SCORE.SYSTEM.CONST>
0

>  <SCORE.SYSTEM.DIHEDRAL>
1.39649

>  <SCORE.SYSTEM.POLAR>
-0.838781

>  <SCORE.SYSTEM.VDW>
-1.4265

>  <SCORE.SYSTEM.norm>
-0.105297

>  <SCORE.heavy>
34

>  <SCORE.norm>
-0.555963

$$$$
RAL.pdb
  rDOCK(R)          3D
libRbt.so/2013.1/901 2013/11/27
 36 40  0  0  0  0  0  0  0  0999 V2000
   32.6885    2.1874   30.2501 C   0  0  0  0  0  0
   33.5440    3.0382   30.9015 C   0  0  0  0  0  0
   33.1391    3.8371   31.9342 C   0  0  0  0  0  0
   34.1001    4.6217   32.5216 O   0  0  0  0  0  0
   31.8081    3.7799   32.3631 C   0  0  0  0  0  0
   30.9630    2.9016   31.7308 C   0  0  0  0  0  0
   29.3486    2.6404   31.9686 S   0  0  0  0  0  0
   29.1290    1.4369   30.8054 C   0  0  0  0  0  0
   27.8045    0.8376   30.4765 C   0  0  0  0  0  0
   26.9418    0.6913   31.5454 C   0  0  0  0  0  0
   25.6621    0.2218   31.2977 C   0  0  0  0  0  0
   25.2581   -0.1338   30.0260 C   0  0  0  0  0  0
   23.9485   -0.5929   29.8739 O   0  0  0  0  0  0
   26.1050    0.0563   28.9539 C   0  0  0  0  0  0
   27.3808    0.5437   29.2097 C   0  0  0  0  0  0
   31.4081    2.0931   30.6462 C   0  0  0  0  0  0
   30.3394    1.2718   30.0993 C   0  0  0  0  0  0
   30.5294    0.4324   29.0182 C   0  0  0  0  0  0
   29.8000   -0.5581   28.8842 O   0  0  0  0  0  0
   31.5775    0.6529   28.0157 C   0  0  0  0  0  0
   31.7457    1.8937   27.4347 C   0  0  0  0  0  0
   32.7129    2.1309   26.4773 C   0  0  0  0  0  0
   33.5228    1.0732   26.0674 C   0  0  0  0  0  0
   33.3686   -0.1728   26.6486 C   0  0  0  0  0  0
   32.4087   -0.3759   27.6260 C   0  0  0  0  0  0
   34.5235    1.0648   25.1413 O   0  0  0  0  0  0
   34.1526    0.7443   23.8091 C   0  0  0  0  0  0
   35.3256    0.9211   22.8821 C   0  0  0  0  0  0
   35.4915    0.4577   21.5179 N   0  0  0  0  0  0
   35.8796   -0.9671   21.5431 C   0  0  0  0  0  0
   35.9399   -1.6200   20.1474 C   0  0  0  0  0  0
   37.0260   -0.8737   19.3561 C   0  0  0  0  0  0
   36.4599    0.5729   19.2162 C   0  0  0  0  0  0
   36.4244    1.1789   20.6301 C   0  0  0  0  0  0
   34.9792    4.6072   32.1977 H   0  0  0  0  0  0
   23.4434   -0.8265   30.6277 H   0  0  0  0  0  0
  1  2  2  0  0  0
  1 16  1  0  0  0
  2  3  1  0  0  0
  3  4  1  0  0  0
  3  5  2  0  0  0
  4 35  1  0  0  0
  5  6  1  0  0  0
  6  7  1  0  0  0
  6 16  2  0  0  0
  7  8  1  0  0  0
  8  9  1  0  0  0
  8 17  2  0  0  0
  9 10  2  0  0  0
  9 15  1  0  0  0
 10 11  1  0  0  0
 11 12  2  0  0  0
 12 13  1  0  0  0
 12 14  1  0  0  0
 13 36  1  0  0  0
 14 15  2  0  0  0
 16 17  1  0  0  0
 17 18  1  0  0  0
 18 19  2  0  0  0
 18 20  1  0  0  0
 20 21  2  0  0  0
 20 25  1  0  0  0
 21 22  1  0  0  0
 22 23  2  0  0  0
 23 24  1  0  0  0
 23 26  1  0  0  0
 24 25  2  0  0  0
 26 27  1  0  0  0
 27 28  1  0  0  0
 28 29  1  0  0  0
 29 30  1  0  0  0
 29 34  1  0  0  0
 30 31  1  0  0  0
 31 32  1  0  0  0
 32 33  1  0  0  0
 33 34  1  0  0  0
M  END
>  <CHROM.0>
103.07794616,-70.70287156,146.88481774,66.24082010

>  <CHROM.1>
1.43078035,-35.46468940,-13.24583633,-25.20307562,-48.83834108,-91.11181051
173.85442733,165.91807273,-80.40463551,31.62874441,1.10224555,27.68844514
-2.28113225,-0.36761271,-2.00818560

>  <FORMUL>
      RAL    C28 H27 N1 O4 S1

>  <HET>
 RAL  A 600      34

>  <HETNAM>
     RAL RALOXIFENE

>  <Name>
RAL.pdb

>  <RI>
0

>  <Rbt.Current_Directory>
/home/malgorzata/Desktop/rDOCK_IFD/Wyniki/6_estrogen_receptor/IFD

>  <Rbt.Executable>
rbdock ($Id: //depot/dev/client3/rdock/2013.1/src/exe/rbdock.cxx#4 $)

>  <Rbt.Library>
libRbt.so (2013.1, Build901 2013/11/27)

>  <Rbt.Parameter_File>
/home/malgorzata/Desktop/rDock_2013.1_src/data/scripts/dock.prm

>  <Rbt.Receptor>
cavity.prm

>  <SCORE>
-12.2463

>  <SCORE.INTER>
-9.87604

>  <SCORE.INTER.CONST>
1

>  <SCORE.INTER.POLAR>
-0.734595

>  <SCORE.INTER.REPUL>
0

>  <SCORE.INTER.ROT>
7

>  <SCORE.INTER.VDW>
-19.7784

>  <SCORE.INTER.norm>
-0.290472

>  <SCORE.INTRA>
1.175

>  <SCORE.INTRA.DIHEDRAL>
1.30837

>  <SCORE.INTRA.DIHEDRAL.0>
18.358

>  <SCORE.INTRA.POLAR>
0

>  <SCORE.INTRA.POLAR.0>
0

>  <SCORE.INTRA.REPUL>
0

>  <SCORE.INTRA.REPUL.0>
0

>  <SCORE.INTRA.VDW>
0.52082

>  <SCORE.INTRA.VDW.0>
-1.94569

>  <SCORE.INTRA.norm>
0.0345589

>  <SCORE.RESTR>
0.0123371

>  <SCORE.RESTR.CAVITY>
0.0123371

>  <SCORE.RESTR.norm>
0.000362857

>  <SCORE.SYSTEM>
-3.55763

>  <SCORE.SYSTEM.CONST>
0

>  <SCORE.SYSTEM.DIHEDRAL>
1.39679

>  <SCORE.SYSTEM.POLAR>
-0.838686

>  <SCORE.SYSTEM.VDW>
-1.40449

>  <SCORE.SYSTEM.norm>
-0.104636

>  <SCORE.heavy>
34

>  <SCORE.norm>
-0.360186

$$$$
RAL.pdb
  rDOCK(R)          3D
libRbt.so/2013.1/901 2013/11/27
 36 40  0  0  0  0  0  0  0  0999 V2000
   32.2275    0.5009   23.5343 C   0  0  0  0  0  0
   31.3616    0.0200   22.5862 C   0  0  0  0  0  0
   31.6478   -1.0745   21.8188 C   0  0  0  0  0  0
   30.6839   -1.4722   20.9262 O   0  0  0  0  0  0
   32.8593   -1.7482   22.0116 C   0  0  0  0  0  0
   33.7085   -1.2840   22.9857 C   0  0  0  0  0  0
   35.2107   -1.8229   23.4148 S   0  0  0  0  0  0
   35.5147   -0.7171   24.6534 C   0  0  0  0  0  0
   36.8046   -0.6431   25.3967 C   0  0  0  0  0  0
   37.8614   -1.3132   24.8117 C   0  0  0  0  0  0
   39.1105   -1.2143   25.4028 C   0  0  0  0  0  0
   39.3015   -0.5011   26.5699 C   0  0  0  0  0  0
   40.5967   -0.4551   27.0888 O   0  0  0  0  0  0
   38.2554    0.2047   27.1268 C   0  0  0  0  0  0
   37.0099    0.1133   26.5176 C   0  0  0  0  0  0
   33.3919   -0.1308   23.7591 C   0  0  0  0  0  0
   34.4494    0.2068   24.6990 C   0  0  0  0  0  0
   34.3777    1.3082   25.5305 C   0  0  0  0  0  0
   35.3320    2.0944   25.5790 O   0  0  0  0  0  0
   33.2156    1.5870   26.3814 C   0  0  0  0  0  0
   33.0968    2.7965   27.0360 C   0  0  0  0  0  0
   32.0231    3.0850   27.8560 C   0  0  0  0  0  0
   31.0464    2.1095   28.0481 C   0  0  0  0  0  0
   31.1509    0.8966   27.3908 C   0  0  0  0  0  0
   32.2243    0.6441   26.5530 C   0  0  0  0  0  0
   29.9174    2.1611   28.8111 O   0  0  0  0  0  0
   29.7402    3.3249   29.6042 C   0  0  0  0  0  0
   28.2832    3.5201   29.9292 C   0  0  0  0  0  0
   27.2505    2.5231   30.1363 N   0  0  0  0  0  0
   25.9308    3.1814   30.0584 C   0  0  0  0  0  0
   24.7423    2.2005   30.1122 C   0  0  0  0  0  0
   24.8115    1.4955   31.4765 C   0  0  0  0  0  0
   26.1400    0.6810   31.4100 C   0  0  0  0  0  0
   27.2899    1.7023   31.3624 C   0  0  0  0  0  0
   29.8649   -1.0185   20.8880 H   0  0  0  0  0  0
   41.2952   -0.8940   26.6445 H   0  0  0  0  0  0
  1  2  2  0  0  0
  1 16  1  0  0  0
  2  3  1  0  0  0
  3  4  1  0  0  0
  3  5  2  0  0  0
  4 35  1  0  0  0
  5  6  1  0  0  0
  6  7  1  0  0  0
  6 16  2  0  0  0
  7  8  1  0  0  0
  8  9  1  0  0  0
  8 17  2  0  0  0
  9 10  2  0  0  0
  9 15  1  0  0  0
 10 11  1  0  0  0
 11 12  2  0  0  0
 12 13  1  0  0  0
 12 14  1  0  0  0
 13 36  1  0  0  0
 14 15  2  0  0  0
 16 17  1  0  0  0
 17 18  1  0  0  0
 18 19  2  0  0  0
 18 20  1  0  0  0
 20 21  2  0  0  0
 20 25  1  0  0  0
 21 22  1  0  0  0
 22 23  2  0  0  0
 23 24  1  0  0  0
 23 26  1  0  0  0
 24 25  2  0  0  0
 26 27  1  0  0  0
 27 28  1  0  0  0
 28 29  1  0  0  0
 29 30  1  0  0  0
 29 34  1  0  0  0
 30 31  1  0  0  0
 31 32  1  0  0  0
 32 33  1  0  0  0
 33 34  1  0  0  0
M  END
>  <CHROM.0>
-109.07446886,-89.08083048,139.07002679,66.82877625

>  <CHROM.1>
-2.27031604,14.92800271,0.30318795,50.70878205,-169.92980351,-5.04583053
156.90663394,32.39548388,-164.51986562,32.56972505,0.63422562,26.43050369
0.56368421,0.07040914,-1.95765068

>  <FORMUL>
      RAL    C28 H27 N1 O4 S1

>  <HET>
 RAL  A 600      34

>  <HETNAM>
     RAL RALOXIFENE

>  <Name>
RAL.pdb

>  <RI>
0

>  <Rbt.Current_Directory>
/home/malgorzata/Desktop/rDOCK_IFD/Wyniki/6_estrogen_receptor/IFD

>  <Rbt.Executable>
rbdock ($Id: //depot/dev/client3/rdock/2013.1/src/exe/rbdock.cxx#4 $)

>  <Rbt.Library>
libRbt.so (2013.1, Build901 2013/11/27)

>  <Rbt.Parameter_File>
/home/malgorzata/Desktop/rDock_2013.1_src/data/scripts/dock.prm

>  <Rbt.Receptor>
cavity.prm

>  <SCORE>
-13.3452

>  <SCORE.INTER>
-8.60814

>  <SCORE.INTER.CONST>
1

>  <SCORE.INTER.POLAR>
0

>  <SCORE.INTER.REPUL>
0

>  <SCORE.INTER.ROT>
7

>  <SCORE.INTER.VDW>
-21.0081

>  <SCORE.INTER.norm>
-0.253181

>  <SCORE.INTRA>
-1.16033

>  <SCORE.INTRA.DIHEDRAL>
-4.73284

>  <SCORE.INTRA.DIHEDRAL.0>
18.358

>  <SCORE.INTRA.POLAR>
0

>  <SCORE.INTRA.POLAR.0>
0

>  <SCORE.INTRA.REPUL>
0

>  <SCORE.INTRA.REPUL.0>
0

>  <SCORE.INTRA.VDW>
1.20609

>  <SCORE.INTRA.VDW.0>
-1.94569

>  <SCORE.INTRA.norm>
-0.0341273

>  <SCORE.RESTR>
0

>  <SCORE.RESTR.CAVITY>
0

>  <SCORE.RESTR.norm>
0

>  <SCORE.SYSTEM>
-3.57676

>  <SCORE.SYSTEM.CONST>
0

>  <SCORE.SYSTEM.DIHEDRAL>
1.43291

>  <SCORE.SYSTEM.POLAR>
-0.835001

>  <SCORE.SYSTEM.VDW>
-1.45421

>  <SCORE.SYSTEM.norm>
-0.105199

>  <SCORE.heavy>
34

>  <SCORE.norm>
-0.392507

$$$$
RAL.pdb
  rDOCK(R)          3D
libRbt.so/2013.1/901 2013/11/27
 36 40  0  0  0  0  0  0  0  0999 V2000
   25.8945    0.0056   28.4152 C   0  0  0  0  0  0
   24.5950   -0.1130   27.9944 C   0  0  0  0  0  0
   23.6711    0.8777   28.1775 C   0  0  0  0  0  0
   22.4116    0.6468   27.6832 O   0  0  0  0  0  0
   24.0591    2.0693   28.8006 C   0  0  0  0  0  0
   25.3698    2.1976   29.1896 C   0  0  0  0  0  0
   26.1139    3.4419   29.9830 S   0  0  0  0  0  0
   27.6672    2.7845   30.0514 C   0  0  0  0  0  0
   28.8090    3.4344   30.7554 C   0  0  0  0  0  0
   29.8717    2.6020   31.0485 C   0  0  0  0  0  0
   31.0027    3.1578   31.6241 C   0  0  0  0  0  0
   31.0651    4.5007   31.9402 C   0  0  0  0  0  0
   32.2480    4.9703   32.5140 O   0  0  0  0  0  0
   30.0217    5.3383   31.6049 C   0  0  0  0  0  0
   28.8982    4.7748   31.0124 C   0  0  0  0  0  0
   26.3071    1.1422   29.0013 C   0  0  0  0  0  0
   27.6223    1.4762   29.5253 C   0  0  0  0  0  0
   28.6824    0.5907   29.4853 C   0  0  0  0  0  0
   28.6516   -0.4242   30.1927 O   0  0  0  0  0  0
   29.8656    0.8053   28.6451 C   0  0  0  0  0  0
   29.8702    1.7857   27.6734 C   0  0  0  0  0  0
   30.9621    2.0038   26.8557 C   0  0  0  0  0  0
   32.0812    1.1858   27.0011 C   0  0  0  0  0  0
   32.0909    0.2052   27.9769 C   0  0  0  0  0  0
   30.9926    0.0262   28.8012 C   0  0  0  0  0  0
   33.2561    1.2046   26.3093 O   0  0  0  0  0  0
   33.1992    0.7970   24.9507 C   0  0  0  0  0  0
   32.9092   -0.6774   24.8583 C   0  0  0  0  0  0
   32.6790   -1.4925   23.6809 N   0  0  0  0  0  0
   33.9813   -1.8171   23.0647 C   0  0  0  0  0  0
   33.8825   -2.8077   21.8871 C   0  0  0  0  0  0
   33.0320   -2.1245   20.8040 C   0  0  0  0  0  0
   31.6273   -1.9807   21.4664 C   0  0  0  0  0  0
   31.7794   -0.9828   22.6277 C   0  0  0  0  0  0
   22.2025   -0.1837   27.3031 H   0  0  0  0  0  0
   32.3370    5.8784   32.7272 H   0  0  0  0  0  0
  1  2  2  0  0  0
  1 16  1  0  0  0
  2  3  1  0  0  0
  3  4  1  0  0  0
  3  5  2  0  0  0
  4 35  1  0  0  0
  5  6  1  0  0  0
  6  7  1  0  0  0
  6 16  2  0  0  0
  7  8  1  0  0  0
  8  9  1  0  0  0
  8 17  2  0  0  0
  9 10  2  0  0  0
  9 15  1  0  0  0
 10 11  1  0  0  0
 11 12  2  0  0  0
 12 13  1  0  0  0
 12 14  1  0  0  0
 13 36  1  0  0  0
 14 15  2  0  0  0
 16 17  1  0  0  0
 17 18  1  0  0  0
 18 19  2  0  0  0
 18 20  1  0  0  0
 20 21  2  0  0  0
 20 25  1  0  0  0
 21 22  1  0  0  0
 22 23  2  0  0  0
 23 24  1  0  0  0
 23 26  1  0  0  0
 24 25  2  0  0  0
 26 27  1  0  0  0
 27 28  1  0  0  0
 28 29  1  0  0  0
 29 30  1  0  0  0
 29 34  1  0  0  0
 30 31  1  0  0  0
 31 32  1  0  0  0
 32 33  1  0  0  0
 33 34  1  0  0  0
M  END
>  <CHROM.0>
104.69989423,-149.04486680,121.69854979,66.14655947

>  <CHROM.1>
4.59424558,161.68881470,178.76495929,111.81231016,-11.64532043,-69.28864821
-68.76329959,175.52392857,79.62337330,29.49203682,1.21554494,27.82632114
2.20418017,0.10825173,0.96848170

>  <FORMUL>
      RAL    C28 H27 N1 O4 S1

>  <HET>
 RAL  A 600      34

>  <HETNAM>
     RAL RALOXIFENE

>  <Name>
RAL.pdb

>  <RI>
0

>  <Rbt.Current_Directory>
/home/malgorzata/Desktop/rDOCK_IFD/Wyniki/6_estrogen_receptor/IFD

>  <Rbt.Executable>
rbdock ($Id: //depot/dev/client3/rdock/2013.1/src/exe/rbdock.cxx#4 $)

>  <Rbt.Library>
libRbt.so (2013.1, Build901 2013/11/27)

>  <Rbt.Parameter_File>
/home/malgorzata/Desktop/rDock_2013.1_src/data/scripts/dock.prm

>  <Rbt.Receptor>
cavity.prm

>  <SCORE>
-19.3144

>  <SCORE.INTER>
-14.7446

>  <SCORE.INTER.CONST>
1

>  <SCORE.INTER.POLAR>
0

>  <SCORE.INTER.REPUL>
0

>  <SCORE.INTER.ROT>
7

>  <SCORE.INTER.VDW>
-27.1446

>  <SCORE.INTER.norm>
-0.433665

>  <SCORE.INTRA>
-0.8259

>  <SCORE.INTRA.DIHEDRAL>
-1.90317

>  <SCORE.INTRA.DIHEDRAL.0>
18.358

>  <SCORE.INTRA.POLAR>
0

>  <SCORE.INTRA.POLAR.0>
0

>  <SCORE.INTRA.REPUL>
0

>  <SCORE.INTRA.REPUL.0>
0

>  <SCORE.INTRA.VDW>
0.125683

>  <SCORE.INTRA.VDW.0>
-1.94569

>  <SCORE.INTRA.norm>
-0.0242912

>  <SCORE.RESTR>
0

>  <SCORE.RESTR.CAVITY>
0

>  <SCORE.RESTR.norm>
0

>  <SCORE.SYSTEM>
-3.74392

>  <SCORE.SYSTEM.CONST>
0

>  <SCORE.SYSTEM.DIHEDRAL>
1.39138

>  <SCORE.SYSTEM.POLAR>
-0.838049

>  <SCORE.SYSTEM.VDW>
-1.59024

>  <SCORE.SYSTEM.norm>
-0.110115

>  <SCORE.heavy>
34

>  <SCORE.norm>
-0.568072

$$$$
