SIA.pdb
  rDOCK(R)          3D
libRbt.so/2013.1/901 2013/11/27
 28 28  0  0  0  0  0  0  0  0999 V2000
   -7.4575   58.0908  -15.4860 C   0  0  0  0  0  0
   -6.6855   59.2310  -14.8173 C   0  0  0  0  0  0
   -5.7794   59.1348  -13.5965 C   0  0  0  0  0  0
   -4.7442   60.2477  -13.5396 C   0  0  0  0  0  0
   -5.1828   61.4876  -14.3139 C   0  0  0  0  0  0
   -5.3597   61.1084  -15.7877 C   0  0  0  0  0  0
   -5.9232   62.2811  -16.6116 C   0  0  0  0  0  0
   -5.3723   62.3076  -18.0387 C   0  0  0  0  0  0
   -3.8361   62.1620  -18.1689 C   0  0  0  0  0  0
   -2.7908   62.2495  -14.1084 C   0  0  0  0  0  0
   -1.9357   63.4967  -13.9578 C   0  0  0  0  0  0
   -4.0959   62.4348  -14.1431 N   0  0  0  0  0  0
   -7.3240   57.0200  -14.8648 O   0  0  0  0  0  0
   -8.0852   58.0052  -16.5578 O   0  0  0  0  0  0
   -7.8769   60.0210  -14.8207 O   0  0  0  0  0  0
   -4.6047   60.6136  -12.1866 O   0  0  0  0  0  0
   -6.3318   60.0526  -15.9366 O   0  0  0  0  0  0
   -7.3343   62.2016  -16.7351 O   0  0  0  0  0  0
   -5.9371   61.1711  -18.6525 O   0  0  0  0  0  0
   -3.4218   62.3184  -19.5173 O   0  0  0  0  0  0
   -2.3319   61.1074  -14.1660 O   0  0  0  0  0  0
   -4.4764   63.3460  -14.1158 H   0  0  0  0  0  0
   -7.8382   60.4755  -15.6843 H   0  0  0  0  0  0
   -3.8900   61.2803  -12.1503 H   0  0  0  0  0  0
   -7.2957   63.1230  -17.0728 H   0  0  0  0  0  0
   -5.6061   61.2101  -19.5604 H   0  0  0  0  0  0
   -3.6882   63.2480  -19.6571 H   0  0  0  0  0  0
   -8.4829   57.1933  -16.8043 H   0  0  0  0  0  0
  1 13  2  0  0  0
  1 14  1  0  0  0
  2  1  1  0  0  0
  2  3  1  0  0  0
  2 15  1  0  0  0
  2 17  1  0  0  0
  3  4  1  0  0  0
  4  5  1  0  0  0
  4 16  1  0  0  0
  5  6  1  0  0  0
  5 12  1  0  0  0
  6  7  1  0  0  0
  6 17  1  0  0  0
  7  8  1  0  0  0
  7 18  1  0  0  0
  8  9  1  0  0  0
  8 19  1  0  0  0
  9 20  1  0  0  0
 10 11  1  0  0  0
 10 12  1  0  0  0
 10 21  2  0  0  0
 12 22  1  0  0  0
 14 28  1  0  0  0
 15 23  1  0  0  0
 16 24  1  0  0  0
 18 25  1  0  0  0
 19 26  1  0  0  0
 20 27  1  0  0  0
M  END
>  <CHROM.0>
63.88054068,64.08619713,-62.73348710,174.21465843,76.26885228,-74.60367704
115.42494005,160.68456029,-109.25454052,145.83233348

>  <CHROM.1>
178.57946219,3.54058520,-88.97745437,175.78915213,37.87127316,145.82327229
-48.25360099,167.67352547,-174.80261674,178.32531206,63.86267143,-5.38148934
60.79736829,-15.57553423,2.81235678,0.70369277,1.94391601

>  <FORMUL>
      SIA    C11 H19 N1 O9

>  <HET>
 SIA  A 467      39

>  <HETNAM>
     SIA O-SIALIC ACID

>  <Name>
SIA.pdb

>  <RI>
0

>  <Rbt.Current_Directory>
/home/malgorzata/Desktop/rDOCK_IFD/test12/IFD

>  <Rbt.Executable>
rbdock ($Id: //depot/dev/client3/rdock/2013.1/src/exe/rbdock.cxx#4 $)

>  <Rbt.Library>
libRbt.so (2013.1, Build901 2013/11/27)

>  <Rbt.Parameter_File>
/home/malgorzata/Desktop/rDock_2013.1_src/data/scripts/hard_docking.prm

>  <Rbt.Receptor>
cavity.prm

>  <SCORE>
-37.4839

>  <SCORE.INTER>
-3.70912

>  <SCORE.INTER.CONST>
1

>  <SCORE.INTER.POLAR>
-1.03542

>  <SCORE.INTER.REPUL>
0.0539133

>  <SCORE.INTER.ROT>
5

>  <SCORE.INTER.VDW>
-10.8583

>  <SCORE.INTER.norm>
-0.176625

>  <SCORE.INTRA>
-12.3547

>  <SCORE.INTRA.DIHEDRAL>
-12.8464

>  <SCORE.INTRA.DIHEDRAL.0>
24.6845

>  <SCORE.INTRA.POLAR>
0.0210322

>  <SCORE.INTRA.POLAR.0>
-0.967721

>  <SCORE.INTRA.REPUL>
0.102017

>  <SCORE.INTRA.REPUL.0>
0

>  <SCORE.INTRA.VDW>
-6.51307

>  <SCORE.INTRA.VDW.0>
7.44847

>  <SCORE.INTRA.norm>
-0.588318

>  <SCORE.RESTR>
0

>  <SCORE.RESTR.CAVITY>
0

>  <SCORE.RESTR.norm>
0

>  <SCORE.SYSTEM>
-21.4201

>  <SCORE.SYSTEM.CONST>
0

>  <SCORE.SYSTEM.DIHEDRAL>
3.33614

>  <SCORE.SYSTEM.POLAR>
-5.33875

>  <SCORE.SYSTEM.REPUL>
0.00211148

>  <SCORE.SYSTEM.VDW>
-4.94696

>  <SCORE.SYSTEM.norm>
-1.02

>  <SCORE.heavy>
21

>  <SCORE.norm>
-1.78495

$$$$
SIA.pdb
  rDOCK(R)          3D
libRbt.so/2013.1/901 2013/11/27
 28 28  0  0  0  0  0  0  0  0999 V2000
   -0.0705   56.9379   -7.5162 C   0  0  0  0  0  0
   -1.3486   57.5281   -6.9150 C   0  0  0  0  0  0
   -1.6760   57.6956   -5.4367 C   0  0  0  0  0  0
   -2.6945   58.7952   -5.1778 C   0  0  0  0  0  0
   -3.5775   59.0654   -6.3931 C   0  0  0  0  0  0
   -2.6893   59.5338   -7.5502 C   0  0  0  0  0  0
   -3.4961   59.7065   -8.8507 C   0  0  0  0  0  0
   -4.4469   60.9035   -8.7912 C   0  0  0  0  0  0
   -3.7725   62.2974   -8.7730 C   0  0  0  0  0  0
   -5.7996   60.1651   -5.9487 C   0  0  0  0  0  0
   -6.4220   61.4314   -5.3845 C   0  0  0  0  0  0
   -4.4819   60.1181   -5.9671 N   0  0  0  0  0  0
    0.4479   56.0975   -6.7578 O   0  0  0  0  0  0
    0.5896   57.2065   -8.5371 O   0  0  0  0  0  0
   -2.1236   56.6907   -7.7763 O   0  0  0  0  0  0
   -3.5272   58.3498   -4.1328 O   0  0  0  0  0  0
   -1.6879   58.5443   -7.8664 O   0  0  0  0  0  0
   -2.6476   59.9320   -9.9651 O   0  0  0  0  0  0
   -5.1801   60.8275   -9.9930 O   0  0  0  0  0  0
   -3.0109   62.4796   -7.5894 O   0  0  0  0  0  0
   -6.4530   59.2248   -6.4036 O   0  0  0  0  0  0
   -3.9460   60.8572   -5.5896 H   0  0  0  0  0  0
   -3.0174   57.0801   -7.7173 H   0  0  0  0  0  0
   -3.9916   57.5560   -4.4654 H   0  0  0  0  0  0
   -3.4531   59.8411  -10.5196 H   0  0  0  0  0  0
   -5.7806   61.5841   -9.9457 H   0  0  0  0  0  0
   -3.7327   62.4506   -6.9316 H   0  0  0  0  0  0
    1.3810   56.7392   -8.7198 H   0  0  0  0  0  0
  1 13  2  0  0  0
  1 14  1  0  0  0
  2  1  1  0  0  0
  2  3  1  0  0  0
  2 15  1  0  0  0
  2 17  1  0  0  0
  3  4  1  0  0  0
  4  5  1  0  0  0
  4 16  1  0  0  0
  5  6  1  0  0  0
  5 12  1  0  0  0
  6  7  1  0  0  0
  6 17  1  0  0  0
  7  8  1  0  0  0
  7 18  1  0  0  0
  8  9  1  0  0  0
  8 19  1  0  0  0
  9 20  1  0  0  0
 10 11  1  0  0  0
 10 12  1  0  0  0
 10 21  2  0  0  0
 12 22  1  0  0  0
 14 28  1  0  0  0
 15 23  1  0  0  0
 16 24  1  0  0  0
 18 25  1  0  0  0
 19 26  1  0  0  0
 20 27  1  0  0  0
M  END
>  <CHROM.0>
64.93617209,-61.98489608,-65.59609738,-60.49910850,76.21971135,64.85323575
116.41720226,160.43472839,91.04985751,58.79515821

>  <CHROM.1>
177.65291209,28.83250394,-165.66075344,-63.39276322,-123.72556263,70.24113342
68.73007227,171.83262166,-64.91628923,179.75378967,-64.36675811,-3.04819599
59.21860184,-7.26177921,-0.33855999,0.63515478,-1.05955616

>  <FORMUL>
      SIA    C11 H19 N1 O9

>  <HET>
 SIA  A 467      39

>  <HETNAM>
     SIA O-SIALIC ACID

>  <Name>
SIA.pdb

>  <RI>
0

>  <Rbt.Current_Directory>
/home/malgorzata/Desktop/rDOCK_IFD/test12/IFD

>  <Rbt.Executable>
rbdock ($Id: //depot/dev/client3/rdock/2013.1/src/exe/rbdock.cxx#4 $)

>  <Rbt.Library>
libRbt.so (2013.1, Build901 2013/11/27)

>  <Rbt.Parameter_File>
/home/malgorzata/Desktop/rDock_2013.1_src/data/scripts/hard_docking.prm

>  <Rbt.Receptor>
cavity.prm

>  <SCORE>
-37.2266

>  <SCORE.INTER>
-6.67771

>  <SCORE.INTER.CONST>
1

>  <SCORE.INTER.POLAR>
-2.21968

>  <SCORE.INTER.REPUL>
0.0471312

>  <SCORE.INTER.ROT>
5

>  <SCORE.INTER.VDW>
-9.76646

>  <SCORE.INTER.norm>
-0.317986

>  <SCORE.INTRA>
-16.0488

>  <SCORE.INTRA.DIHEDRAL>
-20.3581

>  <SCORE.INTRA.DIHEDRAL.0>
24.6845

>  <SCORE.INTRA.POLAR>
0.630403

>  <SCORE.INTRA.POLAR.0>
-0.967721

>  <SCORE.INTRA.REPUL>
0

>  <SCORE.INTRA.REPUL.0>
0

>  <SCORE.INTRA.VDW>
-8.01313

>  <SCORE.INTRA.VDW.0>
7.44847

>  <SCORE.INTRA.norm>
-0.764229

>  <SCORE.RESTR>
0

>  <SCORE.RESTR.CAVITY>
0

>  <SCORE.RESTR.norm>
0

>  <SCORE.SYSTEM>
-14.5001

>  <SCORE.SYSTEM.CONST>
0

>  <SCORE.SYSTEM.DIHEDRAL>
3.07175

>  <SCORE.SYSTEM.POLAR>
-3.99065

>  <SCORE.SYSTEM.VDW>
-2.46772

>  <SCORE.SYSTEM.norm>
-0.690479

>  <SCORE.heavy>
21

>  <SCORE.norm>
-1.77269

$$$$
SIA.pdb
  rDOCK(R)          3D
libRbt.so/2013.1/901 2013/11/27
 28 28  0  0  0  0  0  0  0  0999 V2000
   -1.2546   56.6059   -6.8509 C   0  0  0  0  0  0
   -1.8661   57.8550   -7.4904 C   0  0  0  0  0  0
   -2.2623   58.0396   -8.9497 C   0  0  0  0  0  0
   -3.3318   59.1039   -9.1417 C   0  0  0  0  0  0
   -3.3436   60.1251   -8.0074 C   0  0  0  0  0  0
   -3.6584   59.3980   -6.6962 C   0  0  0  0  0  0
   -3.5641   60.3451   -5.4855 C   0  0  0  0  0  0
   -3.8914   59.6398   -4.1679 C   0  0  0  0  0  0
   -4.0205   60.5584   -2.9278 C   0  0  0  0  0  0
   -4.3938   62.1068   -9.1540 C   0  0  0  0  0  0
   -5.7172   62.8340   -9.3245 C   0  0  0  0  0  0
   -4.4014   61.0557   -8.3578 N   0  0  0  0  0  0
   -1.9531   56.1827   -5.9111 O   0  0  0  0  0  0
   -0.1719   56.0129   -7.0132 O   0  0  0  0  0  0
   -0.8537   58.6511   -6.8700 O   0  0  0  0  0  0
   -3.0237   59.7893  -10.3331 O   0  0  0  0  0  0
   -2.6868   58.3645   -6.4322 O   0  0  0  0  0  0
   -2.2556   60.8725   -5.3360 O   0  0  0  0  0  0
   -5.1641   59.0724   -4.3819 O   0  0  0  0  0  0
   -5.0408   61.5271   -3.1152 O   0  0  0  0  0  0
   -3.3419   62.4652   -9.6862 O   0  0  0  0  0  0
   -5.2411   60.7469   -7.9388 H   0  0  0  0  0  0
   -1.3097   59.4989   -6.7047 H   0  0  0  0  0  0
   -3.1738   59.1580  -11.0648 H   0  0  0  0  0  0
   -2.6575   61.5358   -4.7336 H   0  0  0  0  0  0
   -5.7414   59.8387   -4.5033 H   0  0  0  0  0  0
   -4.9927   61.9760   -2.2488 H   0  0  0  0  0  0
    0.4305   56.3081   -7.6675 H   0  0  0  0  0  0
  1 13  2  0  0  0
  1 14  1  0  0  0
  2  1  1  0  0  0
  2  3  1  0  0  0
  2 15  1  0  0  0
  2 17  1  0  0  0
  3  4  1  0  0  0
  4  5  1  0  0  0
  4 16  1  0  0  0
  5  6  1  0  0  0
  5 12  1  0  0  0
  6  7  1  0  0  0
  6 17  1  0  0  0
  7  8  1  0  0  0
  7 18  1  0  0  0
  8  9  1  0  0  0
  8 19  1  0  0  0
  9 20  1  0  0  0
 10 11  1  0  0  0
 10 12  1  0  0  0
 10 21  2  0  0  0
 12 22  1  0  0  0
 14 28  1  0  0  0
 15 23  1  0  0  0
 16 24  1  0  0  0
 18 25  1  0  0  0
 19 26  1  0  0  0
 20 27  1  0  0  0
M  END
>  <CHROM.0>
64.36198522,-62.45044603,86.62259424,63.74528209,74.44514503,-77.34347117
154.86136565,85.06413508,-102.12005038,92.89128175

>  <CHROM.1>
-3.20947861,-122.27692391,-148.02863854,68.68764305,-83.58537093,179.33614777
-171.53274118,164.72370562,59.20696784,-64.50044450,178.30053036,-3.14382865
59.56185848,-6.89559944,-0.45073840,0.94626672,-1.32466242

>  <FORMUL>
      SIA    C11 H19 N1 O9

>  <HET>
 SIA  A 467      39

>  <HETNAM>
     SIA O-SIALIC ACID

>  <Name>
SIA.pdb

>  <RI>
0

>  <Rbt.Current_Directory>
/home/malgorzata/Desktop/rDOCK_IFD/test12/IFD

>  <Rbt.Executable>
rbdock ($Id: //depot/dev/client3/rdock/2013.1/src/exe/rbdock.cxx#4 $)

>  <Rbt.Library>
libRbt.so (2013.1, Build901 2013/11/27)

>  <Rbt.Parameter_File>
/home/malgorzata/Desktop/rDock_2013.1_src/data/scripts/hard_docking.prm

>  <Rbt.Receptor>
cavity.prm

>  <SCORE>
-38.3773

>  <SCORE.INTER>
-6.30704

>  <SCORE.INTER.CONST>
1

>  <SCORE.INTER.POLAR>
-2.56544

>  <SCORE.INTER.REPUL>
0.0200942

>  <SCORE.INTER.ROT>
5

>  <SCORE.INTER.VDW>
-8.08501

>  <SCORE.INTER.norm>
-0.300335

>  <SCORE.INTRA>
-15.4994

>  <SCORE.INTRA.DIHEDRAL>
-18.9808

>  <SCORE.INTRA.DIHEDRAL.0>
24.6845

>  <SCORE.INTRA.POLAR>
-0.0903251

>  <SCORE.INTRA.POLAR.0>
-0.967721

>  <SCORE.INTRA.REPUL>
0

>  <SCORE.INTRA.REPUL.0>
0

>  <SCORE.INTRA.VDW>
-5.70195

>  <SCORE.INTRA.VDW.0>
7.44847

>  <SCORE.INTRA.norm>
-0.738068

>  <SCORE.RESTR>
0

>  <SCORE.RESTR.CAVITY>
0

>  <SCORE.RESTR.norm>
0

>  <SCORE.SYSTEM>
-16.5708

>  <SCORE.SYSTEM.CONST>
0

>  <SCORE.SYSTEM.DIHEDRAL>
7.3666

>  <SCORE.SYSTEM.POLAR>
-3.8071

>  <SCORE.SYSTEM.REPUL>
0.00912213

>  <SCORE.SYSTEM.VDW>
-7.35557

>  <SCORE.SYSTEM.norm>
-0.789087

>  <SCORE.heavy>
21

>  <SCORE.norm>
-1.82749

$$$$
SIA.pdb
  rDOCK(R)          3D
libRbt.so/2013.1/901 2013/11/27
 28 28  0  0  0  0  0  0  0  0999 V2000
   -4.0302   59.4942  -11.8389 C   0  0  0  0  0  0
   -3.0716   58.8191  -10.8546 C   0  0  0  0  0  0
   -1.6654   58.3102  -11.1445 C   0  0  0  0  0  0
   -0.7930   58.2427   -9.9004 C   0  0  0  0  0  0
   -1.6160   58.1129   -8.6216 C   0  0  0  0  0  0
   -2.5066   59.3518   -8.4837 C   0  0  0  0  0  0
   -3.4595   59.2345   -7.2795 C   0  0  0  0  0  0
   -4.3387   60.4750   -7.1099 C   0  0  0  0  0  0
   -5.4327   60.6759   -8.1874 C   0  0  0  0  0  0
   -0.4043   57.1205   -6.6489 C   0  0  0  0  0  0
    0.7543   57.3741   -5.6989 C   0  0  0  0  0  0
   -0.6342   58.0517   -7.5539 N   0  0  0  0  0  0
   -3.6271   59.3957  -13.0127 O   0  0  0  0  0  0
   -5.0478   60.1952  -11.6867 O   0  0  0  0  0  0
   -4.1278   57.9466  -10.4461 O   0  0  0  0  0  0
    0.0043   57.0874  -10.0168 O   0  0  0  0  0  0
   -3.3743   59.4945   -9.6277 O   0  0  0  0  0  0
   -4.3482   58.1378   -7.4222 O   0  0  0  0  0  0
   -5.0112   60.2624   -5.8892 O   0  0  0  0  0  0
   -6.1839   61.8538   -7.9374 O   0  0  0  0  0  0
   -1.1332   56.1288   -6.5907 O   0  0  0  0  0  0
   -0.0470   58.8430   -7.6231 H   0  0  0  0  0  0
   -3.9255   57.7800   -9.5053 H   0  0  0  0  0  0
    0.6328   57.1057   -9.2677 H   0  0  0  0  0  0
   -4.6097   58.3071   -6.4908 H   0  0  0  0  0  0
   -4.3128   60.3366   -5.2244 H   0  0  0  0  0  0
   -5.4687   62.5154   -8.0113 H   0  0  0  0  0  0
   -5.4815   60.5598  -12.4330 H   0  0  0  0  0  0
  1 13  2  0  0  0
  1 14  1  0  0  0
  2  1  1  0  0  0
  2  3  1  0  0  0
  2 15  1  0  0  0
  2 17  1  0  0  0
  3  4  1  0  0  0
  4  5  1  0  0  0
  4 16  1  0  0  0
  5  6  1  0  0  0
  5 12  1  0  0  0
  6  7  1  0  0  0
  6 17  1  0  0  0
  7  8  1  0  0  0
  7 18  1  0  0  0
  8  9  1  0  0  0
  8 19  1  0  0  0
  9 20  1  0  0  0
 10 11  1  0  0  0
 10 12  1  0  0  0
 10 21  2  0  0  0
 12 22  1  0  0  0
 14 28  1  0  0  0
 15 23  1  0  0  0
 16 24  1  0  0  0
 18 25  1  0  0  0
 19 26  1  0  0  0
 20 27  1  0  0  0
M  END
>  <CHROM.0>
179.84815938,-56.84145522,-62.79637276,60.67475519,77.93375991,-75.72974542
115.54879277,164.92981257,-101.36226679,140.12310749

>  <CHROM.1>
176.79680357,11.37812089,-148.05927548,173.60788090,-120.73925729,178.90054885
70.21669737,170.68997044,-179.80355532,69.08716660,61.85230905,-2.91569957
58.86168366,-8.84347575,-2.67696350,-0.59202482,1.55125547

>  <FORMUL>
      SIA    C11 H19 N1 O9

>  <HET>
 SIA  A 467      39

>  <HETNAM>
     SIA O-SIALIC ACID

>  <Name>
SIA.pdb

>  <RI>
0

>  <Rbt.Current_Directory>
/home/malgorzata/Desktop/rDOCK_IFD/test12/IFD

>  <Rbt.Executable>
rbdock ($Id: //depot/dev/client3/rdock/2013.1/src/exe/rbdock.cxx#4 $)

>  <Rbt.Library>
libRbt.so (2013.1, Build901 2013/11/27)

>  <Rbt.Parameter_File>
/home/malgorzata/Desktop/rDock_2013.1_src/data/scripts/hard_docking.prm

>  <Rbt.Receptor>
cavity.prm

>  <SCORE>
-44.2411

>  <SCORE.INTER>
-5.41605

>  <SCORE.INTER.CONST>
1

>  <SCORE.INTER.POLAR>
-2.3797

>  <SCORE.INTER.REPUL>
0.11036

>  <SCORE.INTER.ROT>
5

>  <SCORE.INTER.VDW>
-8.27687

>  <SCORE.INTER.norm>
-0.257907

>  <SCORE.INTRA>
-17.1017

>  <SCORE.INTRA.DIHEDRAL>
-19.1029

>  <SCORE.INTRA.DIHEDRAL.0>
24.6845

>  <SCORE.INTRA.POLAR>
-0.0467691

>  <SCORE.INTRA.POLAR.0>
-0.967721

>  <SCORE.INTRA.REPUL>
0

>  <SCORE.INTRA.REPUL.0>
0

>  <SCORE.INTRA.VDW>
-7.39121

>  <SCORE.INTRA.VDW.0>
7.44847

>  <SCORE.INTRA.norm>
-0.814365

>  <SCORE.RESTR>
0

>  <SCORE.RESTR.CAVITY>
0

>  <SCORE.RESTR.norm>
0

>  <SCORE.SYSTEM>
-21.7234

>  <SCORE.SYSTEM.CONST>
0

>  <SCORE.SYSTEM.DIHEDRAL>
2.86881

>  <SCORE.SYSTEM.POLAR>
-5.09521

>  <SCORE.SYSTEM.REPUL>
0.00983877

>  <SCORE.SYSTEM.VDW>
-5.88324

>  <SCORE.SYSTEM.norm>
-1.03445

>  <SCORE.heavy>
21

>  <SCORE.norm>
-2.10672

$$$$
SIA.pdb
  rDOCK(R)          3D
libRbt.so/2013.1/901 2013/11/27
 28 28  0  0  0  0  0  0  0  0999 V2000
   -1.2661   56.6521   -6.8274 C   0  0  0  0  0  0
   -1.4863   57.3097   -8.1921 C   0  0  0  0  0  0
   -1.0182   56.7935   -9.5468 C   0  0  0  0  0  0
   -1.8571   57.3190  -10.7016 C   0  0  0  0  0  0
   -2.5480   58.6372  -10.3634 C   0  0  0  0  0  0
   -3.4969   58.4048   -9.1832 C   0  0  0  0  0  0
   -4.1381   59.7203   -8.7032 C   0  0  0  0  0  0
   -5.2763   59.4840   -7.7086 C   0  0  0  0  0  0
   -5.9319   60.7586   -7.1222 C   0  0  0  0  0  0
   -4.3337   58.4255  -12.1272 C   0  0  0  0  0  0
   -4.8753   59.1014  -13.3759 C   0  0  0  0  0  0
   -3.2826   58.9894  -11.5651 N   0  0  0  0  0  0
   -0.1428   56.1209   -6.7498 O   0  0  0  0  0  0
   -2.0113   56.4577   -5.8491 O   0  0  0  0  0  0
   -1.0298   58.5519   -7.6516 O   0  0  0  0  0  0
   -0.9779   57.5585  -11.7757 O   0  0  0  0  0  0
   -2.7809   57.9035   -8.0352 O   0  0  0  0  0  0
   -3.1971   60.5467   -8.0366 O   0  0  0  0  0  0
   -6.2715   58.8319   -8.4648 O   0  0  0  0  0  0
   -5.0534   61.4153   -6.2214 O   0  0  0  0  0  0
   -4.8011   57.3892  -11.6520 O   0  0  0  0  0  0
   -2.9087   59.8299  -11.9252 H   0  0  0  0  0  0
   -1.2952   59.1999   -8.3324 H   0  0  0  0  0  0
   -0.6032   56.6911  -12.0281 H   0  0  0  0  0  0
   -2.8373   60.7512   -8.9272 H   0  0  0  0  0  0
   -7.0055   58.7314   -7.8432 H   0  0  0  0  0  0
   -4.2801   61.5259   -6.8081 H   0  0  0  0  0  0
   -2.8936   56.7728   -5.8622 H   0  0  0  0  0  0
  1 13  2  0  0  0
  1 14  1  0  0  0
  2  1  1  0  0  0
  2  3  1  0  0  0
  2 15  1  0  0  0
  2 17  1  0  0  0
  3  4  1  0  0  0
  4  5  1  0  0  0
  4 16  1  0  0  0
  5  6  1  0  0  0
  5 12  1  0  0  0
  6  7  1  0  0  0
  6 17  1  0  0  0
  7  8  1  0  0  0
  7 18  1  0  0  0
  8  9  1  0  0  0
  8 19  1  0  0  0
  9 20  1  0  0  0
 10 11  1  0  0  0
 10 12  1  0  0  0
 10 21  2  0  0  0
 12 22  1  0  0  0
 14 28  1  0  0  0
 15 23  1  0  0  0
 16 24  1  0  0  0
 18 25  1  0  0  0
 19 26  1  0  0  0
 20 27  1  0  0  0
M  END
>  <CHROM.0>
62.92296140,-59.64970363,85.28449416,63.04729005,74.54075496,-74.88387799
128.68681142,163.04060667,147.73236680,-93.82878929

>  <CHROM.1>
-2.42445436,37.45367691,-166.65788885,63.73677896,68.42885596,169.31417331
177.14880461,75.35738168,-70.89711707,-176.90515068,55.08934466,-3.13493769
58.42422989,-9.00038391,-0.70989027,0.63111269,-1.70458711

>  <FORMUL>
      SIA    C11 H19 N1 O9

>  <HET>
 SIA  A 467      39

>  <HETNAM>
     SIA O-SIALIC ACID

>  <Name>
SIA.pdb

>  <RI>
0

>  <Rbt.Current_Directory>
/home/malgorzata/Desktop/rDOCK_IFD/test12/IFD

>  <Rbt.Executable>
rbdock ($Id: //depot/dev/client3/rdock/2013.1/src/exe/rbdock.cxx#4 $)

>  <Rbt.Library>
libRbt.so (2013.1, Build901 2013/11/27)

>  <Rbt.Parameter_File>
/home/malgorzata/Desktop/rDock_2013.1_src/data/scripts/hard_docking.prm

>  <Rbt.Receptor>
cavity.prm

>  <SCORE>
-44.0033

>  <SCORE.INTER>
-8.58705

>  <SCORE.INTER.CONST>
1

>  <SCORE.INTER.POLAR>
-2.4615

>  <SCORE.INTER.REPUL>
0.0134466

>  <SCORE.INTER.ROT>
5

>  <SCORE.INTER.VDW>
-10.6852

>  <SCORE.INTER.norm>
-0.408907

>  <SCORE.INTRA>
-17.7028

>  <SCORE.INTRA.DIHEDRAL>
-19.0824

>  <SCORE.INTRA.DIHEDRAL.0>
24.6845

>  <SCORE.INTRA.POLAR>
0.113659

>  <SCORE.INTRA.POLAR.0>
-0.967721

>  <SCORE.INTRA.REPUL>
0

>  <SCORE.INTRA.REPUL.0>
0

>  <SCORE.INTRA.VDW>
-8.54804

>  <SCORE.INTRA.VDW.0>
7.44847

>  <SCORE.INTRA.norm>
-0.84299

>  <SCORE.RESTR>
0

>  <SCORE.RESTR.CAVITY>
0

>  <SCORE.RESTR.norm>
0

>  <SCORE.SYSTEM>
-17.7134

>  <SCORE.SYSTEM.CONST>
0

>  <SCORE.SYSTEM.DIHEDRAL>
2.99182

>  <SCORE.SYSTEM.POLAR>
-4.42206

>  <SCORE.SYSTEM.VDW>
-4.17432

>  <SCORE.SYSTEM.norm>
-0.843497

>  <SCORE.heavy>
21

>  <SCORE.norm>
-2.09539

$$$$
SIA.pdb
  rDOCK(R)          3D
libRbt.so/2013.1/901 2013/11/27
 28 28  0  0  0  0  0  0  0  0999 V2000
    1.1670   57.3180   -8.9088 C   0  0  0  0  0  0
   -0.2791   57.4434   -8.4226 C   0  0  0  0  0  0
   -1.2351   56.3077   -8.0809 C   0  0  0  0  0  0
   -2.3292   56.7275   -7.1114 C   0  0  0  0  0  0
   -2.6000   58.2288   -7.1576 C   0  0  0  0  0  0
   -1.3232   58.9703   -6.7485 C   0  0  0  0  0  0
   -1.4821   60.4954   -6.8921 C   0  0  0  0  0  0
   -0.3701   61.2662   -6.1779 C   0  0  0  0  0  0
    1.0530   61.0884   -6.7621 C   0  0  0  0  0  0
   -3.6207   58.5725   -4.8806 C   0  0  0  0  0  0
   -4.9459   58.8366   -4.1853 C   0  0  0  0  0  0
   -3.6629   58.4434   -6.1922 N   0  0  0  0  0  0
    1.4197   56.1650   -9.3046 O   0  0  0  0  0  0
    2.1407   58.0936   -8.8845 O   0  0  0  0  0  0
   -0.5408   58.3659   -9.4828 O   0  0  0  0  0  0
   -3.5083   56.0663   -7.5071 O   0  0  0  0  0  0
   -0.2259   58.6302   -7.6214 O   0  0  0  0  0  0
   -1.4320   60.8996   -8.2510 O   0  0  0  0  0  0
   -0.7125   62.6217   -6.3593 O   0  0  0  0  0  0
    2.0067   61.8272   -6.0144 O   0  0  0  0  0  0
   -2.5487   58.4469   -4.2863 O   0  0  0  0  0  0
   -4.5124   58.5593   -6.6829 H   0  0  0  0  0  0
   -1.4210   58.7219   -9.2538 H   0  0  0  0  0  0
   -3.3144   55.1083   -7.4766 H   0  0  0  0  0  0
   -2.3088   60.4680   -8.3484 H   0  0  0  0  0  0
   -1.5424   62.7178   -5.8723 H   0  0  0  0  0  0
    1.9213   61.3703   -5.1550 H   0  0  0  0  0  0
    2.9626   57.8253   -9.2457 H   0  0  0  0  0  0
  1 13  2  0  0  0
  1 14  1  0  0  0
  2  1  1  0  0  0
  2  3  1  0  0  0
  2 15  1  0  0  0
  2 17  1  0  0  0
  3  4  1  0  0  0
  4  5  1  0  0  0
  4 16  1  0  0  0
  5  6  1  0  0  0
  5 12  1  0  0  0
  6  7  1  0  0  0
  6 17  1  0  0  0
  7  8  1  0  0  0
  7 18  1  0  0  0
  8  9  1  0  0  0
  8 19  1  0  0  0
  9 20  1  0  0  0
 10 11  1  0  0  0
 10 12  1  0  0  0
 10 21  2  0  0  0
 12 22  1  0  0  0
 14 28  1  0  0  0
 15 23  1  0  0  0
 16 24  1  0  0  0
 18 25  1  0  0  0
 19 26  1  0  0  0
 20 27  1  0  0  0
M  END
>  <CHROM.0>
-176.28984752,-179.58447234,83.42828464,173.40076432,74.92151686,-76.39116866
114.77165351,161.10243947,91.81910787,57.64008636

>  <CHROM.1>
-179.73016590,15.65139386,-169.55722625,58.64953160,81.68510473,165.94376201
66.03331385,70.40751898,-179.07298943,64.98024415,63.12116700,-1.06459558
58.83785578,-7.12711086,0.15330895,-0.51286746,-2.65938835

>  <FORMUL>
      SIA    C11 H19 N1 O9

>  <HET>
 SIA  A 467      39

>  <HETNAM>
     SIA O-SIALIC ACID

>  <Name>
SIA.pdb

>  <RI>
0

>  <Rbt.Current_Directory>
/home/malgorzata/Desktop/rDOCK_IFD/test12/IFD

>  <Rbt.Executable>
rbdock ($Id: //depot/dev/client3/rdock/2013.1/src/exe/rbdock.cxx#4 $)

>  <Rbt.Library>
libRbt.so (2013.1, Build901 2013/11/27)

>  <Rbt.Parameter_File>
/home/malgorzata/Desktop/rDock_2013.1_src/data/scripts/hard_docking.prm

>  <Rbt.Receptor>
cavity.prm

>  <SCORE>
-44.3188

>  <SCORE.INTER>
-6.59479

>  <SCORE.INTER.CONST>
1

>  <SCORE.INTER.POLAR>
-1.19501

>  <SCORE.INTER.REPUL>
0.0586418

>  <SCORE.INTER.ROT>
5

>  <SCORE.INTER.VDW>
-13.225

>  <SCORE.INTER.norm>
-0.314037

>  <SCORE.INTRA>
-15.2091

>  <SCORE.INTRA.DIHEDRAL>
-20.4769

>  <SCORE.INTRA.DIHEDRAL.0>
24.6845

>  <SCORE.INTRA.POLAR>
0.961667

>  <SCORE.INTRA.POLAR.0>
-0.967721

>  <SCORE.INTRA.REPUL>
0

>  <SCORE.INTRA.REPUL.0>
0

>  <SCORE.INTRA.VDW>
-8.24029

>  <SCORE.INTRA.VDW.0>
7.44847

>  <SCORE.INTRA.norm>
-0.724242

>  <SCORE.RESTR>
0

>  <SCORE.RESTR.CAVITY>
0

>  <SCORE.RESTR.norm>
0

>  <SCORE.SYSTEM>
-22.5149

>  <SCORE.SYSTEM.CONST>
0

>  <SCORE.SYSTEM.DIHEDRAL>
3.20451

>  <SCORE.SYSTEM.POLAR>
-5.22013

>  <SCORE.SYSTEM.VDW>
-6.36872

>  <SCORE.SYSTEM.norm>
-1.07214

>  <SCORE.heavy>
21

>  <SCORE.norm>
-2.11042

$$$$
SIA.pdb
  rDOCK(R)          3D
libRbt.so/2013.1/901 2013/11/27
 28 28  0  0  0  0  0  0  0  0999 V2000
   -2.0119   62.9447   -7.8922 C   0  0  0  0  0  0
   -2.0267   62.6947   -6.3820 C   0  0  0  0  0  0
   -1.8893   63.7346   -5.2774 C   0  0  0  0  0  0
   -2.5096   63.2862   -3.9630 C   0  0  0  0  0  0
   -2.5852   61.7663   -3.8463 C   0  0  0  0  0  0
   -3.4751   61.2316   -4.9729 C   0  0  0  0  0  0
   -3.4980   59.6918   -4.9955 C   0  0  0  0  0  0
   -4.7109   59.1387   -5.7463 C   0  0  0  0  0  0
   -6.0776   59.7588   -5.3647 C   0  0  0  0  0  0
   -4.4383   61.6015   -2.1482 C   0  0  0  0  0  0
   -4.7122   61.2265   -0.7013 C   0  0  0  0  0  0
   -3.1834   61.5239   -2.5459 N   0  0  0  0  0  0
   -3.1626   62.9523   -8.3675 O   0  0  0  0  0  0
   -1.0940   63.0311   -8.7289 O   0  0  0  0  0  0
   -1.0745   61.6436   -6.5608 O   0  0  0  0  0  0
   -1.6741   63.7550   -2.9304 O   0  0  0  0  0  0
   -2.9574   61.6115   -6.2650 O   0  0  0  0  0  0
   -2.3551   59.1625   -5.6484 O   0  0  0  0  0  0
   -4.4753   59.4832   -7.0929 O   0  0  0  0  0  0
   -7.1487   59.0171   -5.9276 O   0  0  0  0  0  0
   -5.3063   61.9921   -2.9306 O   0  0  0  0  0  0
   -2.4804   61.1955   -1.9344 H   0  0  0  0  0  0
   -1.0717   61.1978   -5.6918 H   0  0  0  0  0  0
   -1.6886   64.7315   -2.9816 H   0  0  0  0  0  0
   -1.8470   59.4464   -4.8574 H   0  0  0  0  0  0
   -5.2157   59.0808   -7.5674 H   0  0  0  0  0  0
   -6.9979   59.2148   -6.8724 H   0  0  0  0  0  0
   -1.2966   63.1495   -9.6361 H   0  0  0  0  0  0
  1 13  2  0  0  0
  1 14  1  0  0  0
  2  1  1  0  0  0
  2  3  1  0  0  0
  2 15  1  0  0  0
  2 17  1  0  0  0
  3  4  1  0  0  0
  4  5  1  0  0  0
  4 16  1  0  0  0
  5  6  1  0  0  0
  5 12  1  0  0  0
  6  7  1  0  0  0
  6 17  1  0  0  0
  7  8  1  0  0  0
  7 18  1  0  0  0
  8  9  1  0  0  0
  8 19  1  0  0  0
  9 20  1  0  0  0
 10 11  1  0  0  0
 10 12  1  0  0  0
 10 21  2  0  0  0
 12 22  1  0  0  0
 14 28  1  0  0  0
 15 23  1  0  0  0
 16 24  1  0  0  0
 18 25  1  0  0  0
 19 26  1  0  0  0
 20 27  1  0  0  0
M  END
>  <CHROM.0>
-179.11724487,176.72989690,-67.39414991,176.05753373,74.12457589,-84.37108588
110.40405534,161.83364072,-96.52848295,92.95901367

>  <CHROM.1>
176.93911309,-100.39472884,-168.50919520,62.91405017,77.79791247,159.89732246
-48.13996302,72.05907095,-169.23413920,176.44304226,-67.57534302,-3.35028581
61.46404884,-5.20589525,0.73255550,-0.76157940,-1.82397631

>  <FORMUL>
      SIA    C11 H19 N1 O9

>  <HET>
 SIA  A 467      39

>  <HETNAM>
     SIA O-SIALIC ACID

>  <Name>
SIA.pdb

>  <RI>
0

>  <Rbt.Current_Directory>
/home/malgorzata/Desktop/rDOCK_IFD/test12/IFD

>  <Rbt.Executable>
rbdock ($Id: //depot/dev/client3/rdock/2013.1/src/exe/rbdock.cxx#4 $)

>  <Rbt.Library>
libRbt.so (2013.1, Build901 2013/11/27)

>  <Rbt.Parameter_File>
/home/malgorzata/Desktop/rDock_2013.1_src/data/scripts/hard_docking.prm

>  <Rbt.Receptor>
cavity.prm

>  <SCORE>
-33.6124

>  <SCORE.INTER>
-0.633472

>  <SCORE.INTER.CONST>
1

>  <SCORE.INTER.POLAR>
-0.428533

>  <SCORE.INTER.REPUL>
0.0386267

>  <SCORE.INTER.ROT>
5

>  <SCORE.INTER.VDW>
-9.76959

>  <SCORE.INTER.norm>
-0.0301653

>  <SCORE.INTRA>
-13.1508

>  <SCORE.INTRA.DIHEDRAL>
-18.6442

>  <SCORE.INTRA.DIHEDRAL.0>
24.6845

>  <SCORE.INTRA.POLAR>
0.967721

>  <SCORE.INTRA.POLAR.0>
-0.967721

>  <SCORE.INTRA.REPUL>
0.114158

>  <SCORE.INTRA.REPUL.0>
0

>  <SCORE.INTRA.VDW>
-7.68977

>  <SCORE.INTRA.VDW.0>
7.44847

>  <SCORE.INTRA.norm>
-0.626229

>  <SCORE.RESTR>
0.371154

>  <SCORE.RESTR.CAVITY>
0.371154

>  <SCORE.RESTR.norm>
0.017674

>  <SCORE.SYSTEM>
-20.1993

>  <SCORE.SYSTEM.CONST>
0

>  <SCORE.SYSTEM.DIHEDRAL>
3.0372

>  <SCORE.SYSTEM.POLAR>
-4.48587

>  <SCORE.SYSTEM.REPUL>
0.0177388

>  <SCORE.SYSTEM.VDW>
-6.5546

>  <SCORE.SYSTEM.norm>
-0.961869

>  <SCORE.heavy>
21

>  <SCORE.norm>
-1.60059

$$$$
SIA.pdb
  rDOCK(R)          3D
libRbt.so/2013.1/901 2013/11/27
 28 28  0  0  0  0  0  0  0  0999 V2000
   -0.5965   57.5053   -5.7994 C   0  0  0  0  0  0
   -1.8281   58.3586   -5.4859 C   0  0  0  0  0  0
   -2.9178   58.0584   -4.4646 C   0  0  0  0  0  0
   -3.6401   59.3086   -3.9861 C   0  0  0  0  0  0
   -3.5620   60.4470   -4.9998 C   0  0  0  0  0  0
   -2.0907   60.8233   -5.2022 C   0  0  0  0  0  0
   -1.9231   61.8829   -6.3072 C   0  0  0  0  0  0
   -2.5162   63.2362   -5.9107 C   0  0  0  0  0  0
   -1.8544   63.9298   -4.6944 C   0  0  0  0  0  0
   -5.4438   62.1004   -4.7360 C   0  0  0  0  0  0
   -5.9541   63.2047   -3.8253 C   0  0  0  0  0  0
   -4.3028   61.5368   -4.3906 N   0  0  0  0  0  0
   -0.8146   56.2953   -5.6039 O   0  0  0  0  0  0
    0.5783   57.7888   -6.0987 O   0  0  0  0  0  0
   -2.1019   58.4527   -6.8858 O   0  0  0  0  0  0
   -4.9974   58.9669   -3.8282 O   0  0  0  0  0  0
   -1.3255   59.6891   -5.6601 O   0  0  0  0  0  0
   -0.5551   62.1219   -6.5978 O   0  0  0  0  0  0
   -2.2743   64.0641   -7.0259 O   0  0  0  0  0  0
   -0.5356   64.3528   -5.0044 O   0  0  0  0  0  0
   -6.0168   61.7431   -5.7666 O   0  0  0  0  0  0
   -3.8420   61.8012   -3.5577 H   0  0  0  0  0  0
   -2.8166   59.1171   -6.9270 H   0  0  0  0  0  0
   -5.4023   59.6750   -3.2887 H   0  0  0  0  0  0
   -0.5018   61.1699   -6.8334 H   0  0  0  0  0  0
   -2.7279   64.8890   -6.8043 H   0  0  0  0  0  0
   -0.1784   63.5126   -5.3522 H   0  0  0  0  0  0
    1.2063   57.1058   -6.2299 H   0  0  0  0  0  0
  1 13  2  0  0  0
  1 14  1  0  0  0
  2  1  1  0  0  0
  2  3  1  0  0  0
  2 15  1  0  0  0
  2 17  1  0  0  0
  3  4  1  0  0  0
  4  5  1  0  0  0
  4 16  1  0  0  0
  5  6  1  0  0  0
  5 12  1  0  0  0
  6  7  1  0  0  0
  6 17  1  0  0  0
  7  8  1  0  0  0
  7 18  1  0  0  0
  8  9  1  0  0  0
  8 19  1  0  0  0
  9 20  1  0  0  0
 10 11  1  0  0  0
 10 12  1  0  0  0
 10 21  2  0  0  0
 12 22  1  0  0  0
 14 28  1  0  0  0
 15 23  1  0  0  0
 16 24  1  0  0  0
 18 25  1  0  0  0
 19 26  1  0  0  0
 20 27  1  0  0  0
M  END
>  <CHROM.0>
-177.38489422,-178.41918184,82.86120480,62.98885617,74.10024944,-77.76942990
118.14377265,157.17606059,93.03484378,59.04662580

>  <CHROM.1>
178.04266340,29.65782082,-170.80661280,164.18520358,-112.63624491,67.46976923
63.33081168,59.84951476,68.43230328,174.57395398,-52.05379437,-2.56427880
60.67980954,-5.37553619,-1.12752575,0.34943965,-0.07517515

>  <FORMUL>
      SIA    C11 H19 N1 O9

>  <HET>
 SIA  A 467      39

>  <HETNAM>
     SIA O-SIALIC ACID

>  <Name>
SIA.pdb

>  <RI>
0

>  <Rbt.Current_Directory>
/home/malgorzata/Desktop/rDOCK_IFD/test12/IFD

>  <Rbt.Executable>
rbdock ($Id: //depot/dev/client3/rdock/2013.1/src/exe/rbdock.cxx#4 $)

>  <Rbt.Library>
libRbt.so (2013.1, Build901 2013/11/27)

>  <Rbt.Parameter_File>
/home/malgorzata/Desktop/rDock_2013.1_src/data/scripts/hard_docking.prm

>  <Rbt.Receptor>
cavity.prm

>  <SCORE>
-46.4221

>  <SCORE.INTER>
-4.70743

>  <SCORE.INTER.CONST>
1

>  <SCORE.INTER.POLAR>
-1.91812

>  <SCORE.INTER.REPUL>
0.222277

>  <SCORE.INTER.ROT>
5

>  <SCORE.INTER.VDW>
-9.69721

>  <SCORE.INTER.norm>
-0.224163

>  <SCORE.INTRA>
-19.1716

>  <SCORE.INTRA.DIHEDRAL>
-19.5696

>  <SCORE.INTRA.DIHEDRAL.0>
24.6845

>  <SCORE.INTRA.POLAR>
-0.324308

>  <SCORE.INTRA.POLAR.0>
-0.967721

>  <SCORE.INTRA.REPUL>
0

>  <SCORE.INTRA.REPUL.0>
0

>  <SCORE.INTRA.VDW>
-8.28417

>  <SCORE.INTRA.VDW.0>
7.44847

>  <SCORE.INTRA.norm>
-0.912933

>  <SCORE.RESTR>
0.255135

>  <SCORE.RESTR.CAVITY>
0.255135

>  <SCORE.RESTR.norm>
0.0121493

>  <SCORE.SYSTEM>
-22.7982

>  <SCORE.SYSTEM.CONST>
0

>  <SCORE.SYSTEM.DIHEDRAL>
3.23463

>  <SCORE.SYSTEM.POLAR>
-5.17123

>  <SCORE.SYSTEM.VDW>
-6.83334

>  <SCORE.SYSTEM.norm>
-1.08563

>  <SCORE.heavy>
21

>  <SCORE.norm>
-2.21058

$$$$
SIA.pdb
  rDOCK(R)          3D
libRbt.so/2013.1/901 2013/11/27
 28 28  0  0  0  0  0  0  0  0999 V2000
   -1.2869   57.2908   -5.0402 C   0  0  0  0  0  0
   -1.8190   58.1681   -6.1762 C   0  0  0  0  0  0
   -2.4205   59.5625   -6.0554 C   0  0  0  0  0  0
   -2.3068   60.3686   -7.3402 C   0  0  0  0  0  0
   -2.1871   59.4786   -8.5743 C   0  0  0  0  0  0
   -0.9113   58.6393   -8.4518 C   0  0  0  0  0  0
   -0.7873   57.6240   -9.6031 C   0  0  0  0  0  0
    0.4622   56.7504   -9.4768 C   0  0  0  0  0  0
    1.7675   57.4945   -9.1017 C   0  0  0  0  0  0
   -3.0401   60.8909  -10.4776 C   0  0  0  0  0  0
   -2.5865   61.8870  -11.5318 C   0  0  0  0  0  0
   -2.1013   60.4029   -9.6906 N   0  0  0  0  0  0
   -0.3922   56.5206   -5.4357 O   0  0  0  0  0  0
   -1.6402   57.1272   -3.8576 O   0  0  0  0  0  0
   -2.5703   57.0547   -6.6655 O   0  0  0  0  0  0
   -3.4932   61.1175   -7.4646 O   0  0  0  0  0  0
   -0.9340   57.8364   -7.2532 O   0  0  0  0  0  0
   -1.8904   56.7323   -9.6336 O   0  0  0  0  0  0
    0.1737   55.8805   -8.4056 O   0  0  0  0  0  0
    2.8981   56.6510   -9.2583 O   0  0  0  0  0  0
   -4.2048   60.5091  -10.3523 O   0  0  0  0  0  0
   -1.1667   60.7134   -9.7685 H   0  0  0  0  0  0
   -3.2577   56.9346   -5.9822 H   0  0  0  0  0  0
   -3.5034   61.7498   -6.7185 H   0  0  0  0  0  0
   -2.4127   57.4870   -9.9831 H   0  0  0  0  0  0
    0.9238   55.2702   -8.3947 H   0  0  0  0  0  0
    2.7213   56.0153   -8.5377 H   0  0  0  0  0  0
   -1.1975   56.5015   -3.3186 H   0  0  0  0  0  0
  1 13  2  0  0  0
  1 14  1  0  0  0
  2  1  1  0  0  0
  2  3  1  0  0  0
  2 15  1  0  0  0
  2 17  1  0  0  0
  3  4  1  0  0  0
  4  5  1  0  0  0
  4 16  1  0  0  0
  5  6  1  0  0  0
  5 12  1  0  0  0
  6  7  1  0  0  0
  6 17  1  0  0  0
  7  8  1  0  0  0
  7 18  1  0  0  0
  8  9  1  0  0  0
  8 19  1  0  0  0
  9 20  1  0  0  0
 10 11  1  0  0  0
 10 12  1  0  0  0
 10 21  2  0  0  0
 12 22  1  0  0  0
 14 28  1  0  0  0
 15 23  1  0  0  0
 16 24  1  0  0  0
 18 25  1  0  0  0
 19 26  1  0  0  0
 20 27  1  0  0  0
M  END
>  <CHROM.0>
64.38024845,65.93427499,-65.06550747,58.83073050,74.54138890,-78.45997853
114.50787334,164.49871545,89.45946004,60.37788195

>  <CHROM.1>
177.27185571,-151.69507305,69.39507406,65.06902274,-93.48056879,-178.44968833
-44.40884886,73.69174624,-168.89438451,174.00105650,-68.04403730,-1.37969024
58.42008111,-8.06475628,0.82308144,-0.71976169,1.97085637

>  <FORMUL>
      SIA    C11 H19 N1 O9

>  <HET>
 SIA  A 467      39

>  <HETNAM>
     SIA O-SIALIC ACID

>  <Name>
SIA.pdb

>  <RI>
0

>  <Rbt.Current_Directory>
/home/malgorzata/Desktop/rDOCK_IFD/test12/IFD

>  <Rbt.Executable>
rbdock ($Id: //depot/dev/client3/rdock/2013.1/src/exe/rbdock.cxx#4 $)

>  <Rbt.Library>
libRbt.so (2013.1, Build901 2013/11/27)

>  <Rbt.Parameter_File>
/home/malgorzata/Desktop/rDock_2013.1_src/data/scripts/hard_docking.prm

>  <Rbt.Receptor>
cavity.prm

>  <SCORE>
-44.0939

>  <SCORE.INTER>
-11.766

>  <SCORE.INTER.CONST>
1

>  <SCORE.INTER.POLAR>
-3.21083

>  <SCORE.INTER.REPUL>
0.00969802

>  <SCORE.INTER.ROT>
5

>  <SCORE.INTER.VDW>
-11.2977

>  <SCORE.INTER.norm>
-0.560286

>  <SCORE.INTRA>
-9.95164

>  <SCORE.INTRA.DIHEDRAL>
-18.8994

>  <SCORE.INTRA.DIHEDRAL.0>
24.6845

>  <SCORE.INTRA.POLAR>
0.967721

>  <SCORE.INTRA.POLAR.0>
-0.967721

>  <SCORE.INTRA.REPUL>
0.244277

>  <SCORE.INTRA.REPUL.0>
0

>  <SCORE.INTRA.VDW>
-5.01359

>  <SCORE.INTRA.VDW.0>
7.44847

>  <SCORE.INTRA.norm>
-0.473888

>  <SCORE.RESTR>
0

>  <SCORE.RESTR.CAVITY>
0

>  <SCORE.RESTR.norm>
0

>  <SCORE.SYSTEM>
-22.3762

>  <SCORE.SYSTEM.CONST>
0

>  <SCORE.SYSTEM.DIHEDRAL>
3.03815

>  <SCORE.SYSTEM.POLAR>
-5.18351

>  <SCORE.SYSTEM.VDW>
-6.27135

>  <SCORE.SYSTEM.norm>
-1.06553

>  <SCORE.heavy>
21

>  <SCORE.norm>
-2.09971

$$$$
SIA.pdb
  rDOCK(R)          3D
libRbt.so/2013.1/901 2013/11/27
 28 28  0  0  0  0  0  0  0  0999 V2000
   -5.8887   59.5931   -5.6033 C   0  0  0  0  0  0
   -5.7988   60.3147   -6.9504 C   0  0  0  0  0  0
   -5.8332   61.8186   -7.1909 C   0  0  0  0  0  0
   -5.1581   62.2246   -8.4920 C   0  0  0  0  0  0
   -5.1357   61.0897   -9.5123 C   0  0  0  0  0  0
   -4.3320   59.9226   -8.9300 C   0  0  0  0  0  0
   -4.3707   58.6906   -9.8532 C   0  0  0  0  0  0
   -3.7955   58.9843  -11.2402 C   0  0  0  0  0  0
   -2.2722   59.2583  -11.2918 C   0  0  0  0  0  0
   -3.2731   62.1755  -10.8148 C   0  0  0  0  0  0
   -2.8914   62.6298  -12.2138 C   0  0  0  0  0  0
   -4.4753   61.6515  -10.6767 N   0  0  0  0  0  0
   -4.7725   59.1973   -5.2194 O   0  0  0  0  0  0
   -6.8477   59.2410   -4.8917 O   0  0  0  0  0  0
   -6.8001   59.4374   -7.4714 O   0  0  0  0  0  0
   -5.9153   63.2788   -9.0392 O   0  0  0  0  0  0
   -4.9062   59.4693   -7.6863 O   0  0  0  0  0  0
   -3.6034   57.6196   -9.3269 O   0  0  0  0  0  0
   -4.0151   57.7971  -11.9682 O   0  0  0  0  0  0
   -1.5326   58.0758  -11.0293 O   0  0  0  0  0  0
   -2.5423   62.3010   -9.8308 O   0  0  0  0  0  0
   -5.0645   61.5287  -11.4601 H   0  0  0  0  0  0
   -6.3192   58.5945   -7.5822 H   0  0  0  0  0  0
   -5.8344   64.0311   -8.4196 H   0  0  0  0  0  0
   -4.1271   57.7296   -8.5033 H   0  0  0  0  0  0
   -3.5880   57.1148  -11.4321 H   0  0  0  0  0  0
   -1.9575   57.8069  -10.1916 H   0  0  0  0  0  0
   -7.7216   59.4793   -5.1318 H   0  0  0  0  0  0
  1 13  2  0  0  0
  1 14  1  0  0  0
  2  1  1  0  0  0
  2  3  1  0  0  0
  2 15  1  0  0  0
  2 17  1  0  0  0
  3  4  1  0  0  0
  4  5  1  0  0  0
  4 16  1  0  0  0
  5  6  1  0  0  0
  5 12  1  0  0  0
  6  7  1  0  0  0
  6 17  1  0  0  0
  7  8  1  0  0  0
  7 18  1  0  0  0
  8  9  1  0  0  0
  8 19  1  0  0  0
  9 20  1  0  0  0
 10 11  1  0  0  0
 10 12  1  0  0  0
 10 21  2  0  0  0
 12 22  1  0  0  0
 14 28  1  0  0  0
 15 23  1  0  0  0
 16 24  1  0  0  0
 18 25  1  0  0  0
 19 26  1  0  0  0
 20 27  1  0  0  0
M  END
>  <CHROM.0>
64.04032608,-59.49363097,84.93056680,62.04185264,-97.02180238,-77.74995859
113.37552594,159.47988674,91.80435218,53.70378662

>  <CHROM.1>
-5.06008736,-102.49986229,-73.55109341,65.25393949,58.89388690,59.70097721
68.05318926,53.18256483,70.00368694,-55.62591335,-52.32361638,-4.48178883
60.17330966,-9.00486116,-2.85080164,1.00533095,-0.32589079

>  <FORMUL>
      SIA    C11 H19 N1 O9

>  <HET>
 SIA  A 467      39

>  <HETNAM>
     SIA O-SIALIC ACID

>  <Name>
SIA.pdb

>  <RI>
0

>  <Rbt.Current_Directory>
/home/malgorzata/Desktop/rDOCK_IFD/test12/IFD

>  <Rbt.Executable>
rbdock ($Id: //depot/dev/client3/rdock/2013.1/src/exe/rbdock.cxx#4 $)

>  <Rbt.Library>
libRbt.so (2013.1, Build901 2013/11/27)

>  <Rbt.Parameter_File>
/home/malgorzata/Desktop/rDock_2013.1_src/data/scripts/hard_docking.prm

>  <Rbt.Receptor>
cavity.prm

>  <SCORE>
-27.9309

>  <SCORE.INTER>
-1.13852

>  <SCORE.INTER.CONST>
1

>  <SCORE.INTER.POLAR>
-0.9032

>  <SCORE.INTER.REPUL>
0.11256

>  <SCORE.INTER.ROT>
5

>  <SCORE.INTER.VDW>
-9.03044

>  <SCORE.INTER.norm>
-0.0542154

>  <SCORE.INTRA>
-16.9248

>  <SCORE.INTRA.DIHEDRAL>
-18.4611

>  <SCORE.INTRA.DIHEDRAL.0>
24.6845

>  <SCORE.INTRA.POLAR>
-0.645082

>  <SCORE.INTRA.POLAR.0>
-0.967721

>  <SCORE.INTRA.REPUL>
0.103523

>  <SCORE.INTRA.REPUL.0>
0

>  <SCORE.INTRA.VDW>
-6.01858

>  <SCORE.INTRA.VDW.0>
7.44847

>  <SCORE.INTRA.norm>
-0.805943

>  <SCORE.RESTR>
0.175073

>  <SCORE.RESTR.CAVITY>
0.175073

>  <SCORE.RESTR.norm>
0.00833681

>  <SCORE.SYSTEM>
-10.0427

>  <SCORE.SYSTEM.CONST>
0

>  <SCORE.SYSTEM.DIHEDRAL>
3.10244

>  <SCORE.SYSTEM.POLAR>
-3.95722

>  <SCORE.SYSTEM.VDW>
1.86064

>  <SCORE.SYSTEM.norm>
-0.478223

>  <SCORE.heavy>
21

>  <SCORE.norm>
-1.33004

$$$$
