DPC.pdb
  rDOCK(R)          3D
libRbt.so/2013.1/901 2013/11/27
 32 33  0  0  0  0  0  0  0  0999 V2000
   -1.6462   60.8072   -6.0162 C   0  0  0  0  0  0
   -1.2941   59.7705   -5.4656 O   0  0  0  0  0  0
   -1.6307   61.8605   -5.3935 O   0  0  0  0  0  0
   -1.9622   60.7779   -7.4556 C   0  0  0  0  0  0
   -2.2516   61.9018   -8.1199 C   0  0  0  0  0  0
   -2.5181   61.8720   -9.6004 C   0  0  0  0  0  0
   -2.8048   60.4592  -10.1022 C   0  0  0  0  0  0
   -2.6264   60.4176  -11.5489 N   0  0  0  0  0  0
   -3.6078   60.1780  -12.4321 C   0  0  0  0  0  0
   -4.7434   59.9273  -12.0663 O   0  0  0  0  0  0
   -3.2332   60.2826  -13.9220 C   0  0  0  0  0  0
   -1.8209   59.4901   -9.4507 C   0  0  0  0  0  0
   -1.8749   59.5894   -8.0529 O   0  0  0  0  0  0
   -2.2405   58.0672   -9.7434 C   0  0  0  0  0  0
   -1.5833   57.5859  -10.2702 O   0  0  0  0  0  0
   -3.3128   57.5559   -9.1541 N   0  0  0  0  0  0
   -3.5931   56.1291   -9.4288 C   0  0  0  0  0  0
   -2.7955   55.1895   -8.5191 C   0  0  0  0  0  0
   -1.4019   55.0211   -9.0912 C   0  0  0  0  0  0
   -0.2732   55.4616   -8.3644 C   0  0  0  0  0  0
   -1.2141   54.4569  -10.3612 C   0  0  0  0  0  0
    1.0162   55.3715   -8.9177 C   0  0  0  0  0  0
    0.0678   54.3658  -10.9125 C   0  0  0  0  0  0
    1.1852   54.8300  -10.2052 C   0  0  0  0  0  0
   -4.2424   58.3275   -8.3322 C   0  0  0  0  0  0
   -5.3576   58.9836   -9.1643 C   0  0  0  0  0  0
   -6.2130   58.0088   -9.9950 C   0  0  0  0  0  0
   -3.6338   62.7315   -9.8939 N   0  0  0  0  0  0
   -1.2877   61.8843   -4.5219 H   0  0  0  0  0  0
   -1.7216   60.5765  -11.9028 H   0  0  0  0  0  0
   -3.9195   62.5985  -10.8640 H   0  0  0  0  0  0
   -3.3610   63.7038   -9.7500 H   0  0  0  0  0  0
  1  2  2  0  0  0
  1  3  1  0  0  0
  1  4  1  0  0  0
  3 29  1  0  0  0
  4  5  2  0  0  0
  4 13  1  0  0  0
  5  6  1  0  0  0
  6  7  1  0  0  0
  6 28  1  0  0  0
  7  8  1  0  0  0
  7 12  1  0  0  0
  8  9  1  0  0  0
  8 30  1  0  0  0
  9 10  2  0  0  0
  9 11  1  0  0  0
 12 13  1  0  0  0
 12 14  1  0  0  0
 14 15  2  0  0  0
 14 16  1  0  0  0
 16 17  1  0  0  0
 16 25  1  0  0  0
 17 18  1  0  0  0
 18 19  1  0  0  0
 19 20  2  0  0  0
 19 21  1  0  0  0
 20 22  1  0  0  0
 21 23  2  0  0  0
 22 24  2  0  0  0
 23 24  1  0  0  0
 25 26  1  0  0  0
 26 27  1  0  0  0
 28 31  1  0  0  0
 28 32  1  0  0  0
M  END
>  <CHROM.0>
177.76251640,-61.20242641,-159.53675294,-60.42331239,-92.33451776,-142.26773097
-85.19554214,-23.20002439,58.24964319,-146.85956237,-95.96505523

>  <CHROM.1>
4.77896992,-174.87604883,-170.61402687,-115.26856402,116.69660886,83.77063933
87.53656776,-82.08745946,116.71439691,57.74514315,-2.39138449,58.63329820
-9.34655766,-2.25788442,0.97656135,-2.45387634

>  <FORMUL>
      DPC    C20 H27 N3 O5

>  <HET>
 DPC  A 466      28

>  <HETNAM>
     DPC 5-ACETYLAMINO-4-AMINO-6-(PHENETHYL-PROPYL-CARBAMOYL)-5,
   2 DPC 6-DIHYDRO-4H-PYRAN-2-CARBOXYLIC ACID

>  <Name>
DPC.pdb

>  <RI>
2.15877e+07

>  <Rbt.Current_Directory>
/home/malgorzata/Desktop/rDOCK_IFD/Wyniki/11_neuraminidase/IFD

>  <Rbt.Executable>
rbdock ($Id: //depot/dev/client3/rdock/2013.1/src/exe/rbdock.cxx#4 $)

>  <Rbt.Library>
libRbt.so (2013.1, Build901 2013/11/27)

>  <Rbt.Parameter_File>
/home/malgorzata/Desktop/rDock_2013.1_src/data/scripts/dock.prm

>  <Rbt.Receptor>
cavity.prm

>  <SCORE>
-34.754

>  <SCORE.INTER>
-5.21447

>  <SCORE.INTER.CONST>
1

>  <SCORE.INTER.POLAR>
-0.749043

>  <SCORE.INTER.REPUL>
0.112733

>  <SCORE.INTER.ROT>
9

>  <SCORE.INTER.VDW>
-17.6314

>  <SCORE.INTER.norm>
-0.186231

>  <SCORE.INTRA>
-1.35155

>  <SCORE.INTRA.DIHEDRAL>
-0.220726

>  <SCORE.INTRA.DIHEDRAL.0>
7.68839

>  <SCORE.INTRA.POLAR>
0

>  <SCORE.INTRA.POLAR.0>
0

>  <SCORE.INTRA.REPUL>
0

>  <SCORE.INTRA.REPUL.0>
0

>  <SCORE.INTRA.VDW>
-1.24119

>  <SCORE.INTRA.VDW.0>
-2.73227

>  <SCORE.INTRA.norm>
-0.0482697

>  <SCORE.RESTR>
0

>  <SCORE.RESTR.CAVITY>
0

>  <SCORE.RESTR.norm>
0

>  <SCORE.SYSTEM>
-28.188

>  <SCORE.SYSTEM.CONST>
0

>  <SCORE.SYSTEM.DIHEDRAL>
5.60691

>  <SCORE.SYSTEM.POLAR>
-8.24559

>  <SCORE.SYSTEM.VDW>
-2.9564

>  <SCORE.SYSTEM.norm>
-1.00671

>  <SCORE.heavy>
28

>  <SCORE.norm>
-1.24121

$$$$
DPC.pdb
  rDOCK(R)          3D
libRbt.so/2013.1/901 2013/11/27
 32 33  0  0  0  0  0  0  0  0999 V2000
   -0.7517   61.3344   -5.6730 C   0  0  0  0  0  0
   -0.5945   62.5069   -5.3529 O   0  0  0  0  0  0
   -0.0933   60.4619   -5.1228 O   0  0  0  0  0  0
   -1.8217   60.9934   -6.6276 C   0  0  0  0  0  0
   -2.5962   61.9437   -7.1617 C   0  0  0  0  0  0
   -3.6496   61.5949   -8.1779 C   0  0  0  0  0  0
   -3.9629   60.1010   -8.1880 C   0  0  0  0  0  0
   -4.6350   59.7593   -9.4363 N   0  0  0  0  0  0
   -5.5991   58.8336   -9.5551 C   0  0  0  0  0  0
   -5.9567   58.1638   -8.6013 O   0  0  0  0  0  0
   -6.2554   58.6979  -10.9414 C   0  0  0  0  0  0
   -2.6556   59.3173   -8.0953 C   0  0  0  0  0  0
   -1.9189   59.7083   -6.9678 O   0  0  0  0  0  0
   -2.9562   57.8543   -7.8596 C   0  0  0  0  0  0
   -3.6256   57.7178   -7.1709 O   0  0  0  0  0  0
   -2.4555   56.9336   -8.6720 N   0  0  0  0  0  0
   -2.8782   55.5381   -8.4197 C   0  0  0  0  0  0
   -1.6962   54.5639   -8.3912 C   0  0  0  0  0  0
   -1.2531   54.2907   -9.8148 C   0  0  0  0  0  0
    0.0395   54.6654  -10.2450 C   0  0  0  0  0  0
   -2.1280   53.6931  -10.7334 C   0  0  0  0  0  0
    0.4331   54.4777  -11.5817 C   0  0  0  0  0  0
   -1.7376   53.5050  -12.0630 C   0  0  0  0  0  0
   -0.4666   53.9037  -12.4985 C   0  0  0  0  0  0
   -1.4803   57.2121   -9.7240 C   0  0  0  0  0  0
   -2.0930   57.1232  -11.1322 C   0  0  0  0  0  0
   -2.8534   58.3801  -11.5948 C   0  0  0  0  0  0
   -4.8441   62.3437   -7.8917 N   0  0  0  0  0  0
    0.5668   60.6955   -4.5002 H   0  0  0  0  0  0
   -4.3620   60.2422  -10.2496 H   0  0  0  0  0  0
   -5.3920   61.8528   -7.1851 H   0  0  0  0  0  0
   -5.3967   62.4410   -8.7435 H   0  0  0  0  0  0
  1  2  2  0  0  0
  1  3  1  0  0  0
  1  4  1  0  0  0
  3 29  1  0  0  0
  4  5  2  0  0  0
  4 13  1  0  0  0
  5  6  1  0  0  0
  6  7  1  0  0  0
  6 28  1  0  0  0
  7  8  1  0  0  0
  7 12  1  0  0  0
  8  9  1  0  0  0
  8 30  1  0  0  0
  9 10  2  0  0  0
  9 11  1  0  0  0
 12 13  1  0  0  0
 12 14  1  0  0  0
 14 15  2  0  0  0
 14 16  1  0  0  0
 16 17  1  0  0  0
 16 25  1  0  0  0
 17 18  1  0  0  0
 18 19  1  0  0  0
 19 20  2  0  0  0
 19 21  1  0  0  0
 20 22  1  0  0  0
 21 23  2  0  0  0
 22 24  2  0  0  0
 23 24  1  0  0  0
 25 26  1  0  0  0
 26 27  1  0  0  0
 28 31  1  0  0  0
 28 32  1  0  0  0
M  END
>  <CHROM.0>
-174.07587637,62.58385853,-161.93952163,-60.32332400,-122.40180727,-50.18700083
-75.41077275,51.19085916,115.42998835,63.82717339,80.61774359

>  <CHROM.1>
-3.97613581,1.33028620,-84.27352797,-144.95552040,-45.97857860,-131.79199518
-107.98302317,-76.97621262,116.81538530,81.75866326,-2.55376211,58.14409813
-8.79149092,-1.73991621,0.45562396,-2.51879985

>  <FORMUL>
      DPC    C20 H27 N3 O5

>  <HET>
 DPC  A 466      28

>  <HETNAM>
     DPC 5-ACETYLAMINO-4-AMINO-6-(PHENETHYL-PROPYL-CARBAMOYL)-5,
   2 DPC 6-DIHYDRO-4H-PYRAN-2-CARBOXYLIC ACID

>  <Name>
DPC.pdb

>  <RI>
2.15877e+07

>  <Rbt.Current_Directory>
/home/malgorzata/Desktop/rDOCK_IFD/Wyniki/11_neuraminidase/IFD

>  <Rbt.Executable>
rbdock ($Id: //depot/dev/client3/rdock/2013.1/src/exe/rbdock.cxx#4 $)

>  <Rbt.Library>
libRbt.so (2013.1, Build901 2013/11/27)

>  <Rbt.Parameter_File>
/home/malgorzata/Desktop/rDock_2013.1_src/data/scripts/dock.prm

>  <Rbt.Receptor>
cavity.prm

>  <SCORE>
-32.9823

>  <SCORE.INTER>
-12.8286

>  <SCORE.INTER.CONST>
1

>  <SCORE.INTER.POLAR>
-2.21131

>  <SCORE.INTER.REPUL>
0.0580387

>  <SCORE.INTER.ROT>
9

>  <SCORE.INTER.VDW>
-20.0004

>  <SCORE.INTER.norm>
-0.458166

>  <SCORE.INTRA>
2.0645

>  <SCORE.INTRA.DIHEDRAL>
2.68382

>  <SCORE.INTRA.DIHEDRAL.0>
7.68839

>  <SCORE.INTRA.POLAR>
0

>  <SCORE.INTRA.POLAR.0>
0

>  <SCORE.INTRA.REPUL>
0

>  <SCORE.INTRA.REPUL.0>
0

>  <SCORE.INTRA.VDW>
0.722595

>  <SCORE.INTRA.VDW.0>
-2.73227

>  <SCORE.INTRA.norm>
0.0737323

>  <SCORE.RESTR>
0

>  <SCORE.RESTR.CAVITY>
0

>  <SCORE.RESTR.norm>
0

>  <SCORE.SYSTEM>
-22.2182

>  <SCORE.SYSTEM.CONST>
0

>  <SCORE.SYSTEM.DIHEDRAL>
7.8359

>  <SCORE.SYSTEM.POLAR>
-6.51644

>  <SCORE.SYSTEM.REPUL>
0.154609

>  <SCORE.SYSTEM.VDW>
-4.75327

>  <SCORE.SYSTEM.norm>
-0.793506

>  <SCORE.heavy>
28

>  <SCORE.norm>
-1.17794

$$$$
DPC.pdb
  rDOCK(R)          3D
libRbt.so/2013.1/901 2013/11/27
 32 33  0  0  0  0  0  0  0  0999 V2000
   -2.6820   61.6530   -5.8617 C   0  0  0  0  0  0
   -2.0483   60.7829   -5.2756 O   0  0  0  0  0  0
   -2.6216   62.8122   -5.4748 O   0  0  0  0  0  0
   -3.4045   61.2988   -7.0966 C   0  0  0  0  0  0
   -3.8772   62.2461   -7.9134 C   0  0  0  0  0  0
   -4.5645   61.8779   -9.2002 C   0  0  0  0  0  0
   -4.9829   60.4102   -9.2262 C   0  0  0  0  0  0
   -5.2348   60.0066  -10.6048 N   0  0  0  0  0  0
   -4.2837   59.8367  -11.5360 C   0  0  0  0  0  0
   -3.1101   60.0596  -11.2923 O   0  0  0  0  0  0
   -4.7478   59.3043  -12.9042 C   0  0  0  0  0  0
   -3.8500   59.5593   -8.6570 C   0  0  0  0  0  0
   -3.4935   59.9979   -7.3735 O   0  0  0  0  0  0
   -4.3343   58.1420   -8.4493 C   0  0  0  0  0  0
   -5.2587   58.1033   -8.1576 O   0  0  0  0  0  0
   -3.5777   57.1194   -8.8237 N   0  0  0  0  0  0
   -4.1719   55.7733   -8.6670 C   0  0  0  0  0  0
   -4.9108   55.3088   -9.9260 C   0  0  0  0  0  0
   -3.8909   54.9733  -10.9960 C   0  0  0  0  0  0
   -3.5459   55.9280  -11.9786 C   0  0  0  0  0  0
   -3.2998   53.7026  -11.0465 C   0  0  0  0  0  0
   -2.6527   55.6011  -13.0141 C   0  0  0  0  0  0
   -2.4105   53.3763  -12.0753 C   0  0  0  0  0  0
   -2.0906   54.3125  -13.0679 C   0  0  0  0  0  0
   -2.2020   57.2488   -9.2991 C   0  0  0  0  0  0
   -1.1700   57.0282   -8.1799 C   0  0  0  0  0  0
   -1.0502   55.5771   -7.6779 C   0  0  0  0  0  0
   -5.7187   62.7191   -9.3733 N   0  0  0  0  0  0
   -2.1023   63.0296   -4.7257 H   0  0  0  0  0  0
   -6.1691   59.8474  -10.8711 H   0  0  0  0  0  0
   -5.4772   63.5087   -9.9722 H   0  0  0  0  0  0
   -6.0275   63.0638   -8.4643 H   0  0  0  0  0  0
  1  2  2  0  0  0
  1  3  1  0  0  0
  1  4  1  0  0  0
  3 29  1  0  0  0
  4  5  2  0  0  0
  4 13  1  0  0  0
  5  6  1  0  0  0
  6  7  1  0  0  0
  6 28  1  0  0  0
  7  8  1  0  0  0
  7 12  1  0  0  0
  8  9  1  0  0  0
  8 30  1  0  0  0
  9 10  2  0  0  0
  9 11  1  0  0  0
 12 13  1  0  0  0
 12 14  1  0  0  0
 14 15  2  0  0  0
 14 16  1  0  0  0
 16 17  1  0  0  0
 16 25  1  0  0  0
 17 18  1  0  0  0
 18 19  1  0  0  0
 19 20  2  0  0  0
 19 21  1  0  0  0
 20 22  1  0  0  0
 21 23  2  0  0  0
 22 24  2  0  0  0
 23 24  1  0  0  0
 25 26  1  0  0  0
 26 27  1  0  0  0
 28 31  1  0  0  0
 28 32  1  0  0  0
M  END
>  <CHROM.0>
64.92782215,-63.26724390,-64.15639477,66.31083544,113.40643542,-173.59689011
-69.01921605,61.80351631,53.57062846,-148.17392634,-95.01397004

>  <CHROM.1>
-0.89375442,-166.24890994,96.17421358,71.37413506,-36.22712671,91.48051937
95.52505268,72.22227838,-96.02865949,70.55713336,-3.54433968,58.47138981
-9.33161233,-1.71820962,1.05693172,-2.46002585

>  <FORMUL>
      DPC    C20 H27 N3 O5

>  <HET>
 DPC  A 466      28

>  <HETNAM>
     DPC 5-ACETYLAMINO-4-AMINO-6-(PHENETHYL-PROPYL-CARBAMOYL)-5,
   2 DPC 6-DIHYDRO-4H-PYRAN-2-CARBOXYLIC ACID

>  <Name>
DPC.pdb

>  <RI>
2.15877e+07

>  <Rbt.Current_Directory>
/home/malgorzata/Desktop/rDOCK_IFD/Wyniki/11_neuraminidase/IFD

>  <Rbt.Executable>
rbdock ($Id: //depot/dev/client3/rdock/2013.1/src/exe/rbdock.cxx#4 $)

>  <Rbt.Library>
libRbt.so (2013.1, Build901 2013/11/27)

>  <Rbt.Parameter_File>
/home/malgorzata/Desktop/rDock_2013.1_src/data/scripts/dock.prm

>  <Rbt.Receptor>
cavity.prm

>  <SCORE>
-45.288

>  <SCORE.INTER>
-12.2788

>  <SCORE.INTER.CONST>
1

>  <SCORE.INTER.POLAR>
-2.36103

>  <SCORE.INTER.REPUL>
0.00201247

>  <SCORE.INTER.ROT>
9

>  <SCORE.INTER.VDW>
-18.6613

>  <SCORE.INTER.norm>
-0.438528

>  <SCORE.INTRA>
0.57814

>  <SCORE.INTRA.DIHEDRAL>
1.54396

>  <SCORE.INTRA.DIHEDRAL.0>
7.68839

>  <SCORE.INTRA.POLAR>
0

>  <SCORE.INTRA.POLAR.0>
0

>  <SCORE.INTRA.REPUL>
0

>  <SCORE.INTRA.REPUL.0>
0

>  <SCORE.INTRA.VDW>
-0.193839

>  <SCORE.INTRA.VDW.0>
-2.73227

>  <SCORE.INTRA.norm>
0.0206479

>  <SCORE.RESTR>
0

>  <SCORE.RESTR.CAVITY>
0

>  <SCORE.RESTR.norm>
0

>  <SCORE.SYSTEM>
-33.5874

>  <SCORE.SYSTEM.CONST>
0

>  <SCORE.SYSTEM.DIHEDRAL>
4.04692

>  <SCORE.SYSTEM.POLAR>
-9.65702

>  <SCORE.SYSTEM.REPUL>
0.0882871

>  <SCORE.SYSTEM.VDW>
-3.21842

>  <SCORE.SYSTEM.norm>
-1.19955

>  <SCORE.heavy>
28

>  <SCORE.norm>
-1.61743

$$$$
DPC.pdb
  rDOCK(R)          3D
libRbt.so/2013.1/901 2013/11/27
 32 33  0  0  0  0  0  0  0  0999 V2000
   -0.9000   59.7867   -6.7851 C   0  0  0  0  0  0
   -1.3939   60.8173   -7.2275 O   0  0  0  0  0  0
   -0.5585   59.7328   -5.6113 O   0  0  0  0  0  0
   -0.8444   58.5946   -7.6501 C   0  0  0  0  0  0
   -0.1490   57.5118   -7.2862 C   0  0  0  0  0  0
   -0.1422   56.2781   -8.1474 C   0  0  0  0  0  0
   -0.6423   56.5639   -9.5610 C   0  0  0  0  0  0
   -1.0217   55.3089  -10.1995 N   0  0  0  0  0  0
   -0.9516   55.0721  -11.5184 C   0  0  0  0  0  0
   -0.5952   55.9370  -12.3002 O   0  0  0  0  0  0
   -1.2990   53.6451  -11.9806 C   0  0  0  0  0  0
   -1.8667   57.4728   -9.4818 C   0  0  0  0  0  0
   -1.5743   58.6418   -8.7644 O   0  0  0  0  0  0
   -2.2268   57.9614  -10.8667 C   0  0  0  0  0  0
   -1.6181   58.6435  -11.1911 O   0  0  0  0  0  0
   -3.1710   57.3447  -11.5645 N   0  0  0  0  0  0
   -3.3908   57.8338  -12.9437 C   0  0  0  0  0  0
   -4.3494   59.0275  -12.9963 C   0  0  0  0  0  0
   -3.7906   60.1420  -12.1341 C   0  0  0  0  0  0
   -4.3229   60.3856  -10.8482 C   0  0  0  0  0  0
   -2.7617   60.9670  -12.6107 C   0  0  0  0  0  0
   -3.8567   61.4604  -10.0707 C   0  0  0  0  0  0
   -2.2964   62.0357  -11.8382 C   0  0  0  0  0  0
   -2.8443   62.2970  -10.5750 C   0  0  0  0  0  0
   -4.0276   56.2888  -11.0294 C   0  0  0  0  0  0
   -5.0387   56.8181   -9.9980 C   0  0  0  0  0  0
   -5.8182   55.7338   -9.2307 C   0  0  0  0  0  0
    1.1945   55.7488   -8.1986 N   0  0  0  0  0  0
   -0.4689   60.5211   -5.1128 H   0  0  0  0  0  0
   -1.3529   54.5838   -9.6217 H   0  0  0  0  0  0
    1.1855   54.8483   -8.6777 H   0  0  0  0  0  0
    1.5480   55.6256   -7.2498 H   0  0  0  0  0  0
  1  2  2  0  0  0
  1  3  1  0  0  0
  1  4  1  0  0  0
  3 29  1  0  0  0
  4  5  2  0  0  0
  4 13  1  0  0  0
  5  6  1  0  0  0
  6  7  1  0  0  0
  6 28  1  0  0  0
  7  8  1  0  0  0
  7 12  1  0  0  0
  8  9  1  0  0  0
  8 30  1  0  0  0
  9 10  2  0  0  0
  9 11  1  0  0  0
 12 13  1  0  0  0
 12 14  1  0  0  0
 14 15  2  0  0  0
 14 16  1  0  0  0
 16 17  1  0  0  0
 16 25  1  0  0  0
 17 18  1  0  0  0
 18 19  1  0  0  0
 19 20  2  0  0  0
 19 21  1  0  0  0
 20 22  1  0  0  0
 21 23  2  0  0  0
 22 24  2  0  0  0
 23 24  1  0  0  0
 25 26  1  0  0  0
 26 27  1  0  0  0
 28 31  1  0  0  0
 28 32  1  0  0  0
M  END
>  <CHROM.0>
-171.70593107,179.72192842,-63.42462696,-57.89961734,158.01318220,162.17280969
-61.55708401,53.80219825,60.14677425,59.86672542,-94.59322251

>  <CHROM.1>
-15.47326731,170.34574054,172.65811685,-150.01504406,-74.60155645,-85.29467355
70.20408331,57.84948151,-102.42574885,-170.68613929,-2.12129364,58.08991195
-10.05242023,-0.62437880,-0.93417126,0.43711377

>  <FORMUL>
      DPC    C20 H27 N3 O5

>  <HET>
 DPC  A 466      28

>  <HETNAM>
     DPC 5-ACETYLAMINO-4-AMINO-6-(PHENETHYL-PROPYL-CARBAMOYL)-5,
   2 DPC 6-DIHYDRO-4H-PYRAN-2-CARBOXYLIC ACID

>  <Name>
DPC.pdb

>  <RI>
2.15877e+07

>  <Rbt.Current_Directory>
/home/malgorzata/Desktop/rDOCK_IFD/Wyniki/11_neuraminidase/IFD

>  <Rbt.Executable>
rbdock ($Id: //depot/dev/client3/rdock/2013.1/src/exe/rbdock.cxx#4 $)

>  <Rbt.Library>
libRbt.so (2013.1, Build901 2013/11/27)

>  <Rbt.Parameter_File>
/home/malgorzata/Desktop/rDock_2013.1_src/data/scripts/dock.prm

>  <Rbt.Receptor>
cavity.prm

>  <SCORE>
-45.0854

>  <SCORE.INTER>
-14.8109

>  <SCORE.INTER.CONST>
1

>  <SCORE.INTER.POLAR>
-3.39252

>  <SCORE.INTER.REPUL>
0.229031

>  <SCORE.INTER.ROT>
9

>  <SCORE.INTER.VDW>
-18.8215

>  <SCORE.INTER.norm>
-0.528961

>  <SCORE.INTRA>
-2.56905

>  <SCORE.INTRA.DIHEDRAL>
0.860779

>  <SCORE.INTRA.DIHEDRAL.0>
7.68839

>  <SCORE.INTRA.POLAR>
0

>  <SCORE.INTRA.POLAR.0>
0

>  <SCORE.INTRA.REPUL>
0

>  <SCORE.INTRA.REPUL.0>
0

>  <SCORE.INTRA.VDW>
-2.99944

>  <SCORE.INTRA.VDW.0>
-2.73227

>  <SCORE.INTRA.norm>
-0.091752

>  <SCORE.RESTR>
0

>  <SCORE.RESTR.CAVITY>
0

>  <SCORE.RESTR.norm>
0

>  <SCORE.SYSTEM>
-27.7054

>  <SCORE.SYSTEM.CONST>
0

>  <SCORE.SYSTEM.DIHEDRAL>
6.25688

>  <SCORE.SYSTEM.POLAR>
-8.3233

>  <SCORE.SYSTEM.REPUL>
0.32819

>  <SCORE.SYSTEM.VDW>
-4.17562

>  <SCORE.SYSTEM.norm>
-0.98948

>  <SCORE.heavy>
28

>  <SCORE.norm>
-1.61019

$$$$
DPC.pdb
  rDOCK(R)          3D
libRbt.so/2013.1/901 2013/11/27
 32 33  0  0  0  0  0  0  0  0999 V2000
   -4.9756   58.0229  -13.5505 C   0  0  0  0  0  0
   -5.8636   57.3068  -13.9985 O   0  0  0  0  0  0
   -5.0630   59.2385  -13.6608 O   0  0  0  0  0  0
   -3.8827   57.4047  -12.7787 C   0  0  0  0  0  0
   -3.4403   56.1777  -13.0734 C   0  0  0  0  0  0
   -2.2871   55.5749  -12.3179 C   0  0  0  0  0  0
   -2.0050   56.3184  -11.0151 C   0  0  0  0  0  0
   -0.6607   55.9897  -10.5555 N   0  0  0  0  0  0
   -0.2895   55.9231   -9.2677 C   0  0  0  0  0  0
   -1.0695   56.1857   -8.3682 O   0  0  0  0  0  0
    1.1509   55.4553   -8.9901 C   0  0  0  0  0  0
   -2.0907   57.8214  -11.2707 C   0  0  0  0  0  0
   -3.3304   58.1619  -11.8309 O   0  0  0  0  0  0
   -2.0562   58.5633   -9.9537 C   0  0  0  0  0  0
   -1.4674   59.3340   -9.9756 O   0  0  0  0  0  0
   -2.9049   58.2413   -8.9870 N   0  0  0  0  0  0
   -2.8602   59.0816   -7.7697 C   0  0  0  0  0  0
   -3.2769   60.5303   -8.0422 C   0  0  0  0  0  0
   -3.1196   61.3328   -6.7659 C   0  0  0  0  0  0
   -4.2115   62.0583   -6.2391 C   0  0  0  0  0  0
   -1.8828   61.3938   -6.1079 C   0  0  0  0  0  0
   -4.0550   62.8597   -5.0944 C   0  0  0  0  0  0
   -1.7258   62.1897   -4.9688 C   0  0  0  0  0  0
   -2.8002   62.9337   -4.4625 C   0  0  0  0  0  0
   -3.8017   57.0886   -9.0343 C   0  0  0  0  0  0
   -5.2366   57.4422   -8.6073 C   0  0  0  0  0  0
   -6.1801   56.2385   -8.4260 C   0  0  0  0  0  0
   -2.5786   54.1938  -12.0403 N   0  0  0  0  0  0
   -5.7646   59.6148  -14.1550 H   0  0  0  0  0  0
    0.0233   55.8033  -11.2386 H   0  0  0  0  0  0
   -2.6083   53.6700  -12.9150 H   0  0  0  0  0  0
   -3.4819   54.1245  -11.5716 H   0  0  0  0  0  0
  1  2  2  0  0  0
  1  3  1  0  0  0
  1  4  1  0  0  0
  3 29  1  0  0  0
  4  5  2  0  0  0
  4 13  1  0  0  0
  5  6  1  0  0  0
  6  7  1  0  0  0
  6 28  1  0  0  0
  7  8  1  0  0  0
  7 12  1  0  0  0
  8  9  1  0  0  0
  8 30  1  0  0  0
  9 10  2  0  0  0
  9 11  1  0  0  0
 12 13  1  0  0  0
 12 14  1  0  0  0
 14 15  2  0  0  0
 14 16  1  0  0  0
 16 17  1  0  0  0
 16 25  1  0  0  0
 17 18  1  0  0  0
 18 19  1  0  0  0
 19 20  2  0  0  0
 19 21  1  0  0  0
 20 22  1  0  0  0
 21 23  2  0  0  0
 22 24  2  0  0  0
 23 24  1  0  0  0
 25 26  1  0  0  0
 26 27  1  0  0  0
 28 31  1  0  0  0
 28 32  1  0  0  0
M  END
>  <CHROM.0>
-177.38593057,65.80605937,-64.65238728,74.24033871,-103.23389112,-40.82774326
-69.73141563,57.68903907,117.58867191,-149.37081438,-96.36675049

>  <CHROM.1>
-5.68764500,33.47357756,66.45754088,-148.01098812,135.72762535,64.66801856
-133.75957787,-176.54321874,-124.82479670,-171.03382188,-2.94295280,58.24782539
-9.62376927,1.62121675,0.64761502,-2.28510188

>  <FORMUL>
      DPC    C20 H27 N3 O5

>  <HET>
 DPC  A 466      28

>  <HETNAM>
     DPC 5-ACETYLAMINO-4-AMINO-6-(PHENETHYL-PROPYL-CARBAMOYL)-5,
   2 DPC 6-DIHYDRO-4H-PYRAN-2-CARBOXYLIC ACID

>  <Name>
DPC.pdb

>  <RI>
2.15877e+07

>  <Rbt.Current_Directory>
/home/malgorzata/Desktop/rDOCK_IFD/Wyniki/11_neuraminidase/IFD

>  <Rbt.Executable>
rbdock ($Id: //depot/dev/client3/rdock/2013.1/src/exe/rbdock.cxx#4 $)

>  <Rbt.Library>
libRbt.so (2013.1, Build901 2013/11/27)

>  <Rbt.Parameter_File>
/home/malgorzata/Desktop/rDock_2013.1_src/data/scripts/dock.prm

>  <Rbt.Receptor>
cavity.prm

>  <SCORE>
-40.0724

>  <SCORE.INTER>
-8.43176

>  <SCORE.INTER.CONST>
1

>  <SCORE.INTER.POLAR>
-0.552479

>  <SCORE.INTER.REPUL>
0.00064031

>  <SCORE.INTER.ROT>
9

>  <SCORE.INTER.VDW>
-20.9565

>  <SCORE.INTER.norm>
-0.301134

>  <SCORE.INTRA>
2.1096

>  <SCORE.INTRA.DIHEDRAL>
0.798791

>  <SCORE.INTRA.DIHEDRAL.0>
7.68839

>  <SCORE.INTRA.POLAR>
0

>  <SCORE.INTRA.POLAR.0>
0

>  <SCORE.INTRA.REPUL>
0

>  <SCORE.INTRA.REPUL.0>
0

>  <SCORE.INTRA.VDW>
1.71021

>  <SCORE.INTRA.VDW.0>
-2.73227

>  <SCORE.INTRA.norm>
0.075343

>  <SCORE.RESTR>
0

>  <SCORE.RESTR.CAVITY>
0

>  <SCORE.RESTR.norm>
0

>  <SCORE.SYSTEM>
-33.7503

>  <SCORE.SYSTEM.CONST>
0

>  <SCORE.SYSTEM.DIHEDRAL>
4.76966

>  <SCORE.SYSTEM.POLAR>
-9.50797

>  <SCORE.SYSTEM.REPUL>
0.0995899

>  <SCORE.SYSTEM.VDW>
-4.30596

>  <SCORE.SYSTEM.norm>
-1.20537

>  <SCORE.heavy>
28

>  <SCORE.norm>
-1.43116

$$$$
DPC.pdb
  rDOCK(R)          3D
libRbt.so/2013.1/901 2013/11/27
 32 33  0  0  0  0  0  0  0  0999 V2000
   -1.8658   59.3440   -6.2482 C   0  0  0  0  0  0
   -1.8495   60.5492   -6.4699 O   0  0  0  0  0  0
   -2.1695   58.9360   -5.1353 O   0  0  0  0  0  0
   -1.6385   58.4105   -7.3660 C   0  0  0  0  0  0
   -1.0081   57.2470   -7.1739 C   0  0  0  0  0  0
   -0.8290   56.2741   -8.3075 C   0  0  0  0  0  0
   -1.0661   56.9281   -9.6662 C   0  0  0  0  0  0
   -1.3072   55.8915  -10.6631 N   0  0  0  0  0  0
   -0.3604   55.0899  -11.1747 C   0  0  0  0  0  0
    0.8112   55.2108  -10.8600 O   0  0  0  0  0  0
   -0.8387   53.9879  -12.1377 C   0  0  0  0  0  0
   -2.2955   57.8294   -9.5772 C   0  0  0  0  0  0
   -2.1533   58.7659   -8.5430 O   0  0  0  0  0  0
   -2.4028   58.6672  -10.8314 C   0  0  0  0  0  0
   -1.5358   58.9011  -11.1984 O   0  0  0  0  0  0
   -3.5838   58.8602  -11.4028 N   0  0  0  0  0  0
   -3.5797   59.6144  -12.6760 C   0  0  0  0  0  0
   -4.1879   58.8150  -13.8326 C   0  0  0  0  0  0
   -4.5815   59.7755  -14.9373 C   0  0  0  0  0  0
   -3.6693   60.7542  -15.3916 C   0  0  0  0  0  0
   -5.8645   59.7290  -15.5013 C   0  0  0  0  0  0
   -4.0506   61.6922  -16.3672 C   0  0  0  0  0  0
   -6.2448   60.6607  -16.4723 C   0  0  0  0  0  0
   -5.3511   61.6509  -16.9022 C   0  0  0  0  0  0
   -4.8555   58.4416  -10.8174 C   0  0  0  0  0  0
   -5.3652   59.4274   -9.7522 C   0  0  0  0  0  0
   -6.6820   59.0227   -9.0637 C   0  0  0  0  0  0
    0.5010   55.7285   -8.2522 N   0  0  0  0  0  0
   -2.2697   58.0166   -4.9846 H   0  0  0  0  0  0
   -2.2303   55.7712  -10.9836 H   0  0  0  0  0  0
    0.5757   54.9480   -8.9046 H   0  0  0  0  0  0
    0.6949   55.4007   -7.3060 H   0  0  0  0  0  0
  1  2  2  0  0  0
  1  3  1  0  0  0
  1  4  1  0  0  0
  3 29  1  0  0  0
  4  5  2  0  0  0
  4 13  1  0  0  0
  5  6  1  0  0  0
  6  7  1  0  0  0
  6 28  1  0  0  0
  7  8  1  0  0  0
  7 12  1  0  0  0
  8  9  1  0  0  0
  8 30  1  0  0  0
  9 10  2  0  0  0
  9 11  1  0  0  0
 12 13  1  0  0  0
 12 14  1  0  0  0
 14 15  2  0  0  0
 14 16  1  0  0  0
 16 17  1  0  0  0
 16 25  1  0  0  0
 17 18  1  0  0  0
 18 19  1  0  0  0
 19 20  2  0  0  0
 19 21  1  0  0  0
 20 22  1  0  0  0
 21 23  2  0  0  0
 22 24  2  0  0  0
 23 24  1  0  0  0
 25 26  1  0  0  0
 26 27  1  0  0  0
 28 31  1  0  0  0
 28 32  1  0  0  0
M  END
>  <CHROM.0>
65.21370715,66.53072970,-64.74064071,68.24656103,-132.50094003,-30.54186173
-77.72129743,60.18371655,121.00352570,-148.18346771,81.39284682

>  <CHROM.1>
173.67798804,146.59749501,169.63612374,-74.03053212,-33.14606328,121.56835304
80.64365176,160.78627267,48.77329620,-178.21047169,-2.73792580,58.38911975
-10.83726486,0.87868631,-0.83227339,1.40901910

>  <FORMUL>
      DPC    C20 H27 N3 O5

>  <HET>
 DPC  A 466      28

>  <HETNAM>
     DPC 5-ACETYLAMINO-4-AMINO-6-(PHENETHYL-PROPYL-CARBAMOYL)-5,
   2 DPC 6-DIHYDRO-4H-PYRAN-2-CARBOXYLIC ACID

>  <Name>
DPC.pdb

>  <RI>
2.15877e+07

>  <Rbt.Current_Directory>
/home/malgorzata/Desktop/rDOCK_IFD/Wyniki/11_neuraminidase/IFD

>  <Rbt.Executable>
rbdock ($Id: //depot/dev/client3/rdock/2013.1/src/exe/rbdock.cxx#4 $)

>  <Rbt.Library>
libRbt.so (2013.1, Build901 2013/11/27)

>  <Rbt.Parameter_File>
/home/malgorzata/Desktop/rDock_2013.1_src/data/scripts/dock.prm

>  <Rbt.Receptor>
cavity.prm

>  <SCORE>
-43.4435

>  <SCORE.INTER>
-17.0977

>  <SCORE.INTER.CONST>
1

>  <SCORE.INTER.POLAR>
-3.30932

>  <SCORE.INTER.REPUL>
0

>  <SCORE.INTER.ROT>
9

>  <SCORE.INTER.VDW>
-20.2461

>  <SCORE.INTER.norm>
-0.610634

>  <SCORE.INTRA>
4.09206

>  <SCORE.INTRA.DIHEDRAL>
4.30022

>  <SCORE.INTRA.DIHEDRAL.0>
7.68839

>  <SCORE.INTRA.POLAR>
0

>  <SCORE.INTRA.POLAR.0>
0

>  <SCORE.INTRA.REPUL>
0

>  <SCORE.INTRA.REPUL.0>
0

>  <SCORE.INTRA.VDW>
1.94195

>  <SCORE.INTRA.VDW.0>
-2.73227

>  <SCORE.INTRA.norm>
0.146145

>  <SCORE.RESTR>
0

>  <SCORE.RESTR.CAVITY>
0

>  <SCORE.RESTR.norm>
0

>  <SCORE.SYSTEM>
-30.4378

>  <SCORE.SYSTEM.CONST>
0

>  <SCORE.SYSTEM.DIHEDRAL>
4.38416

>  <SCORE.SYSTEM.POLAR>
-8.63134

>  <SCORE.SYSTEM.REPUL>
0.0929873

>  <SCORE.SYSTEM.VDW>
-3.74825

>  <SCORE.SYSTEM.norm>
-1.08706

>  <SCORE.heavy>
28

>  <SCORE.norm>
-1.55155

$$$$
DPC.pdb
  rDOCK(R)          3D
libRbt.so/2013.1/901 2013/11/27
 32 33  0  0  0  0  0  0  0  0999 V2000
   -2.6777   59.0840   -6.6868 C   0  0  0  0  0  0
   -2.3416   59.0309   -5.5094 O   0  0  0  0  0  0
   -3.4349   59.9689   -7.0622 O   0  0  0  0  0  0
   -2.0606   58.1513   -7.6468 C   0  0  0  0  0  0
   -1.1499   57.2566   -7.2491 C   0  0  0  0  0  0
   -0.5654   56.2703   -8.2236 C   0  0  0  0  0  0
   -0.8172   56.6793   -9.6725 C   0  0  0  0  0  0
   -0.6300   55.5208  -10.5383 N   0  0  0  0  0  0
   -1.5477   54.5631  -10.7405 C   0  0  0  0  0  0
   -2.6187   54.5774  -10.1580 O   0  0  0  0  0  0
   -1.1945   53.4792  -11.7754 C   0  0  0  0  0  0
   -2.2552   57.1749   -9.8073 C   0  0  0  0  0  0
   -2.5121   58.2125   -8.8995 O   0  0  0  0  0  0
   -2.4488   57.8078  -11.1669 C   0  0  0  0  0  0
   -1.6187   57.8867  -11.6626 O   0  0  0  0  0  0
   -3.6719   58.0310  -11.6280 N   0  0  0  0  0  0
   -3.7651   58.5670  -13.0042 C   0  0  0  0  0  0
   -3.8564   60.0960  -13.0325 C   0  0  0  0  0  0
   -3.9669   60.5527  -14.4736 C   0  0  0  0  0  0
   -2.8419   61.0845  -15.1428 C   0  0  0  0  0  0
   -5.1919   60.4851  -15.1528 C   0  0  0  0  0  0
   -2.9534   61.5736  -16.4563 C   0  0  0  0  0  0
   -5.3041   60.9703  -16.4596 C   0  0  0  0  0  0
   -4.1962   61.5257  -17.1139 C   0  0  0  0  0  0
   -4.8900   57.8487  -10.8418 C   0  0  0  0  0  0
   -5.2669   59.1071  -10.0414 C   0  0  0  0  0  0
   -6.4976   58.9565   -9.1277 C   0  0  0  0  0  0
    0.8488   56.1572   -7.9855 N   0  0  0  0  0  0
   -3.6589   60.0401   -7.9692 H   0  0  0  0  0  0
    0.2311   55.4355  -11.0080 H   0  0  0  0  0  0
    1.0073   55.7856   -7.0489 H   0  0  0  0  0  0
    1.2815   57.0776   -8.0638 H   0  0  0  0  0  0
  1  2  2  0  0  0
  1  3  1  0  0  0
  1  4  1  0  0  0
  3 29  1  0  0  0
  4  5  2  0  0  0
  4 13  1  0  0  0
  5  6  1  0  0  0
  6  7  1  0  0  0
  6 28  1  0  0  0
  7  8  1  0  0  0
  7 12  1  0  0  0
  8  9  1  0  0  0
  8 30  1  0  0  0
  9 10  2  0  0  0
  9 11  1  0  0  0
 12 13  1  0  0  0
 12 14  1  0  0  0
 14 15  2  0  0  0
 14 16  1  0  0  0
 16 17  1  0  0  0
 16 25  1  0  0  0
 17 18  1  0  0  0
 18 19  1  0  0  0
 19 20  2  0  0  0
 19 21  1  0  0  0
 20 22  1  0  0  0
 21 23  2  0  0  0
 22 24  2  0  0  0
 23 24  1  0  0  0
 25 26  1  0  0  0
 26 27  1  0  0  0
 28 31  1  0  0  0
 28 32  1  0  0  0
M  END
>  <CHROM.0>
63.87985485,68.87931267,-63.75826248,65.08694667,-171.05872140,-46.30927939
-52.31593455,53.55460714,116.18275536,-149.04603229,82.53438098

>  <CHROM.1>
176.80967801,0.12280738,63.02333382,80.90222744,-6.99143579,-94.16328358
87.63457875,-179.23934071,-102.28584843,-176.67030665,-2.81565468,58.18893370
-10.86570651,0.99814723,-0.95845267,1.56453425

>  <FORMUL>
      DPC    C20 H27 N3 O5

>  <HET>
 DPC  A 466      28

>  <HETNAM>
     DPC 5-ACETYLAMINO-4-AMINO-6-(PHENETHYL-PROPYL-CARBAMOYL)-5,
   2 DPC 6-DIHYDRO-4H-PYRAN-2-CARBOXYLIC ACID

>  <Name>
DPC.pdb

>  <RI>
2.15877e+07

>  <Rbt.Current_Directory>
/home/malgorzata/Desktop/rDOCK_IFD/Wyniki/11_neuraminidase/IFD

>  <Rbt.Executable>
rbdock ($Id: //depot/dev/client3/rdock/2013.1/src/exe/rbdock.cxx#4 $)

>  <Rbt.Library>
libRbt.so (2013.1, Build901 2013/11/27)

>  <Rbt.Parameter_File>
/home/malgorzata/Desktop/rDock_2013.1_src/data/scripts/dock.prm

>  <Rbt.Receptor>
cavity.prm

>  <SCORE>
-48.7014

>  <SCORE.INTER>
-19.142

>  <SCORE.INTER.CONST>
1

>  <SCORE.INTER.POLAR>
-4.07164

>  <SCORE.INTER.REPUL>
0.0503816

>  <SCORE.INTER.ROT>
9

>  <SCORE.INTER.VDW>
-19.9504

>  <SCORE.INTER.norm>
-0.683644

>  <SCORE.INTRA>
0.95526

>  <SCORE.INTRA.DIHEDRAL>
-2.46969

>  <SCORE.INTRA.DIHEDRAL.0>
7.68839

>  <SCORE.INTRA.POLAR>
-0.0169433

>  <SCORE.INTRA.POLAR.0>
0

>  <SCORE.INTRA.REPUL>
0

>  <SCORE.INTRA.REPUL.0>
0

>  <SCORE.INTRA.VDW>
2.24771

>  <SCORE.INTRA.VDW.0>
-2.73227

>  <SCORE.INTRA.norm>
0.0341164

>  <SCORE.RESTR>
0

>  <SCORE.RESTR.CAVITY>
0

>  <SCORE.RESTR.norm>
0

>  <SCORE.SYSTEM>
-30.5146

>  <SCORE.SYSTEM.CONST>
0

>  <SCORE.SYSTEM.DIHEDRAL>
4.18359

>  <SCORE.SYSTEM.POLAR>
-8.69829

>  <SCORE.SYSTEM.REPUL>
0.108752

>  <SCORE.SYSTEM.VDW>
-3.57596

>  <SCORE.SYSTEM.norm>
-1.08981

>  <SCORE.heavy>
28

>  <SCORE.norm>
-1.73933

$$$$
DPC.pdb
  rDOCK(R)          3D
libRbt.so/2013.1/901 2013/11/27
 32 33  0  0  0  0  0  0  0  0999 V2000
   -0.8129   61.0430   -6.3795 C   0  0  0  0  0  0
   -0.1201   60.1490   -5.9074 O   0  0  0  0  0  0
   -0.4832   62.2113   -6.2258 O   0  0  0  0  0  0
   -1.9620   60.6811   -7.2286 C   0  0  0  0  0  0
   -2.7515   61.6225   -7.7563 C   0  0  0  0  0  0
   -3.8890   61.2488   -8.6676 C   0  0  0  0  0  0
   -4.2395   59.7666   -8.5675 C   0  0  0  0  0  0
   -5.0149   59.3759   -9.7391 N   0  0  0  0  0  0
   -5.9882   58.4522   -9.7367 C   0  0  0  0  0  0
   -6.2665   57.8264   -8.7281 O   0  0  0  0  0  0
   -6.7588   58.2612  -11.0560 C   0  0  0  0  0  0
   -2.9491   58.9511   -8.5293 C   0  0  0  0  0  0
   -2.1176   59.3824   -7.4856 O   0  0  0  0  0  0
   -3.2672   57.5130   -8.1872 C   0  0  0  0  0  0
   -3.6412   57.4157   -7.2975 O   0  0  0  0  0  0
   -3.1876   56.5745   -9.1208 N   0  0  0  0  0  0
   -3.6064   55.2135   -8.7183 C   0  0  0  0  0  0
   -2.4161   54.2723   -8.5082 C   0  0  0  0  0  0
   -1.6667   54.1315   -9.8183 C   0  0  0  0  0  0
   -0.3691   54.6719   -9.9608 C   0  0  0  0  0  0
   -2.2609   53.4931  -10.9164 C   0  0  0  0  0  0
    0.3043   54.6055  -11.1933 C   0  0  0  0  0  0
   -1.5920   53.4255  -12.1427 C   0  0  0  0  0  0
   -0.3171   53.9877  -12.2939 C   0  0  0  0  0  0
   -2.6539   56.7969  -10.4627 C   0  0  0  0  0  0
   -3.7244   56.6346  -11.5555 C   0  0  0  0  0  0
   -3.2128   56.7898  -12.9999 C   0  0  0  0  0  0
   -5.0385   62.0474   -8.3351 N   0  0  0  0  0  0
   -0.9703   62.8943   -6.6433 H   0  0  0  0  0  0
   -4.8097   59.8216  -10.5926 H   0  0  0  0  0  0
   -5.5046   61.6494   -7.5197 H   0  0  0  0  0  0
   -5.6845   62.0585   -9.1244 H   0  0  0  0  0  0
  1  2  2  0  0  0
  1  3  1  0  0  0
  1  4  1  0  0  0
  3 29  1  0  0  0
  4  5  2  0  0  0
  4 13  1  0  0  0
  5  6  1  0  0  0
  6  7  1  0  0  0
  6 28  1  0  0  0
  7  8  1  0  0  0
  7 12  1  0  0  0
  8  9  1  0  0  0
  8 30  1  0  0  0
  9 10  2  0  0  0
  9 11  1  0  0  0
 12 13  1  0  0  0
 12 14  1  0  0  0
 14 15  2  0  0  0
 14 16  1  0  0  0
 16 17  1  0  0  0
 16 25  1  0  0  0
 17 18  1  0  0  0
 18 19  1  0  0  0
 19 20  2  0  0  0
 19 21  1  0  0  0
 20 22  1  0  0  0
 21 23  2  0  0  0
 22 24  2  0  0  0
 23 24  1  0  0  0
 25 26  1  0  0  0
 26 27  1  0  0  0
 28 31  1  0  0  0
 28 32  1  0  0  0
M  END
>  <CHROM.0>
-178.89110182,-61.30217929,-63.71284388,-64.21169044,91.89998802,-152.59858615
-78.84633842,-101.12664469,119.89898940,-149.41000411,81.66932766

>  <CHROM.1>
175.01090750,179.47444122,-80.27552350,-146.51947276,-64.21850927,-105.08512240
-114.61236115,-61.82350861,111.67799417,-177.21029408,-2.89681626,57.81857395
-9.15705169,-1.69500945,0.38255197,-2.58336894

>  <FORMUL>
      DPC    C20 H27 N3 O5

>  <HET>
 DPC  A 466      28

>  <HETNAM>
     DPC 5-ACETYLAMINO-4-AMINO-6-(PHENETHYL-PROPYL-CARBAMOYL)-5,
   2 DPC 6-DIHYDRO-4H-PYRAN-2-CARBOXYLIC ACID

>  <Name>
DPC.pdb

>  <RI>
2.15877e+07

>  <Rbt.Current_Directory>
/home/malgorzata/Desktop/rDOCK_IFD/Wyniki/11_neuraminidase/IFD

>  <Rbt.Executable>
rbdock ($Id: //depot/dev/client3/rdock/2013.1/src/exe/rbdock.cxx#4 $)

>  <Rbt.Library>
libRbt.so (2013.1, Build901 2013/11/27)

>  <Rbt.Parameter_File>
/home/malgorzata/Desktop/rDock_2013.1_src/data/scripts/dock.prm

>  <Rbt.Receptor>
cavity.prm

>  <SCORE>
-39.0255

>  <SCORE.INTER>
-7.26686

>  <SCORE.INTER.CONST>
1

>  <SCORE.INTER.POLAR>
-1.78961

>  <SCORE.INTER.REPUL>
0.574553

>  <SCORE.INTER.ROT>
9

>  <SCORE.INTER.VDW>
-18.4549

>  <SCORE.INTER.norm>
-0.259531

>  <SCORE.INTRA>
-1.16953

>  <SCORE.INTRA.DIHEDRAL>
-0.130367

>  <SCORE.INTRA.DIHEDRAL.0>
7.68839

>  <SCORE.INTRA.POLAR>
0

>  <SCORE.INTRA.POLAR.0>
0

>  <SCORE.INTRA.REPUL>
0

>  <SCORE.INTRA.REPUL.0>
0

>  <SCORE.INTRA.VDW>
-1.10435

>  <SCORE.INTRA.VDW.0>
-2.73227

>  <SCORE.INTRA.norm>
-0.041769

>  <SCORE.RESTR>
0

>  <SCORE.RESTR.CAVITY>
0

>  <SCORE.RESTR.norm>
0

>  <SCORE.SYSTEM>
-30.5891

>  <SCORE.SYSTEM.CONST>
0

>  <SCORE.SYSTEM.DIHEDRAL>
3.68088

>  <SCORE.SYSTEM.POLAR>
-8.46858

>  <SCORE.SYSTEM.VDW>
-3.63639

>  <SCORE.SYSTEM.norm>
-1.09247

>  <SCORE.heavy>
28

>  <SCORE.norm>
-1.39377

$$$$
DPC.pdb
  rDOCK(R)          3D
libRbt.so/2013.1/901 2013/11/27
 32 33  0  0  0  0  0  0  0  0999 V2000
   -2.3738   58.8955   -6.0526 C   0  0  0  0  0  0
   -1.8835   58.7999   -4.9335 O   0  0  0  0  0  0
   -3.1620   59.7997   -6.2943 O   0  0  0  0  0  0
   -1.9045   57.9895   -7.1162 C   0  0  0  0  0  0
   -0.9067   57.1271   -6.8952 C   0  0  0  0  0  0
   -0.4700   56.1664   -7.9677 C   0  0  0  0  0  0
   -0.9893   56.5712   -9.3448 C   0  0  0  0  0  0
   -0.9179   55.4235  -10.2418 N   0  0  0  0  0  0
   -0.8674   55.5033  -11.5803 C   0  0  0  0  0  0
   -0.9244   56.5772  -12.1545 O   0  0  0  0  0  0
   -0.6880   54.1773  -12.3422 C   0  0  0  0  0  0
   -2.4449   57.0145   -9.2177 C   0  0  0  0  0  0
   -2.5730   58.0388   -8.2683 O   0  0  0  0  0  0
   -2.8989   57.6449  -10.5149 C   0  0  0  0  0  0
   -2.4512   58.4859  -10.6972 O   0  0  0  0  0  0
   -3.6860   56.9703  -11.3420 N   0  0  0  0  0  0
   -4.0031   57.6300  -12.6281 C   0  0  0  0  0  0
   -5.4885   57.9827  -12.7552 C   0  0  0  0  0  0
   -5.7514   58.4948  -14.1574 C   0  0  0  0  0  0
   -5.2757   59.7644  -14.5552 C   0  0  0  0  0  0
   -6.4965   57.7327  -15.0686 C   0  0  0  0  0  0
   -5.5744   60.2749  -15.8307 C   0  0  0  0  0  0
   -6.7936   58.2387  -16.3380 C   0  0  0  0  0  0
   -6.3481   59.5105  -16.7231 C   0  0  0  0  0  0
   -4.2955   55.6809  -11.0241 C   0  0  0  0  0  0
   -5.6415   55.8307  -10.2946 C   0  0  0  0  0  0
   -5.5547   56.4315   -8.8791 C   0  0  0  0  0  0
    0.9671   56.1041   -7.9852 N   0  0  0  0  0  0
   -3.4189   59.9734   -7.1786 H   0  0  0  0  0  0
   -0.9060   54.5265   -9.8364 H   0  0  0  0  0  0
    1.3048   55.7868   -7.0765 H   0  0  0  0  0  0
    1.3452   57.0303   -8.1840 H   0  0  0  0  0  0
  1  2  2  0  0  0
  1  3  1  0  0  0
  1  4  1  0  0  0
  3 29  1  0  0  0
  4  5  2  0  0  0
  4 13  1  0  0  0
  5  6  1  0  0  0
  6  7  1  0  0  0
  6 28  1  0  0  0
  7  8  1  0  0  0
  7 12  1  0  0  0
  8  9  1  0  0  0
  8 30  1  0  0  0
  9 10  2  0  0  0
  9 11  1  0  0  0
 12 13  1  0  0  0
 12 14  1  0  0  0
 14 15  2  0  0  0
 14 16  1  0  0  0
 16 17  1  0  0  0
 16 25  1  0  0  0
 17 18  1  0  0  0
 18 19  1  0  0  0
 19 20  2  0  0  0
 19 21  1  0  0  0
 20 22  1  0  0  0
 21 23  2  0  0  0
 22 24  2  0  0  0
 23 24  1  0  0  0
 25 26  1  0  0  0
 26 27  1  0  0  0
 28 31  1  0  0  0
 28 32  1  0  0  0
M  END
>  <CHROM.0>
179.78792114,65.41846958,-64.41686072,72.27833399,-179.02085940,178.55983346
-65.95759774,150.90119453,-8.78681045,-148.28392354,80.37350860

>  <CHROM.1>
168.87412990,-3.86876543,59.73728765,-157.11302719,-67.49287828,-114.29520857
86.98261103,-173.18158911,-71.48210786,-66.76702214,-3.13304008,57.44415233
-10.65428168,0.88752134,-0.67468433,1.24445441

>  <FORMUL>
      DPC    C20 H27 N3 O5

>  <HET>
 DPC  A 466      28

>  <HETNAM>
     DPC 5-ACETYLAMINO-4-AMINO-6-(PHENETHYL-PROPYL-CARBAMOYL)-5,
   2 DPC 6-DIHYDRO-4H-PYRAN-2-CARBOXYLIC ACID

>  <Name>
DPC.pdb

>  <RI>
2.15877e+07

>  <Rbt.Current_Directory>
/home/malgorzata/Desktop/rDOCK_IFD/Wyniki/11_neuraminidase/IFD

>  <Rbt.Executable>
rbdock ($Id: //depot/dev/client3/rdock/2013.1/src/exe/rbdock.cxx#4 $)

>  <Rbt.Library>
libRbt.so (2013.1, Build901 2013/11/27)

>  <Rbt.Parameter_File>
/home/malgorzata/Desktop/rDock_2013.1_src/data/scripts/dock.prm

>  <Rbt.Receptor>
cavity.prm

>  <SCORE>
-56.4203

>  <SCORE.INTER>
-27.7931

>  <SCORE.INTER.CONST>
1

>  <SCORE.INTER.POLAR>
-4.7285

>  <SCORE.INTER.REPUL>
0.00667743

>  <SCORE.INTER.ROT>
9

>  <SCORE.INTER.VDW>
-26.1496

>  <SCORE.INTER.norm>
-0.99261

>  <SCORE.INTRA>
-0.0443413

>  <SCORE.INTRA.DIHEDRAL>
-0.0348827

>  <SCORE.INTRA.DIHEDRAL.0>
7.68839

>  <SCORE.INTRA.POLAR>
-0.00440795

>  <SCORE.INTRA.POLAR.0>
0

>  <SCORE.INTRA.REPUL>
0

>  <SCORE.INTRA.REPUL.0>
0

>  <SCORE.INTRA.VDW>
-0.0119129

>  <SCORE.INTRA.VDW.0>
-2.73227

>  <SCORE.INTRA.norm>
-0.00158362

>  <SCORE.RESTR>
0

>  <SCORE.RESTR.CAVITY>
0

>  <SCORE.RESTR.norm>
0

>  <SCORE.SYSTEM>
-28.5829

>  <SCORE.SYSTEM.CONST>
0

>  <SCORE.SYSTEM.DIHEDRAL>
4.54729

>  <SCORE.SYSTEM.POLAR>
-8.7561

>  <SCORE.SYSTEM.VDW>
-1.08578

>  <SCORE.SYSTEM.norm>
-1.02082

>  <SCORE.heavy>
28

>  <SCORE.norm>
-2.01501

$$$$
DPC.pdb
  rDOCK(R)          3D
libRbt.so/2013.1/901 2013/11/27
 32 33  0  0  0  0  0  0  0  0999 V2000
   -4.7199   62.4428   -7.8050 C   0  0  0  0  0  0
   -4.3239   63.5956   -7.6776 O   0  0  0  0  0  0
   -5.9035   62.2293   -8.0302 O   0  0  0  0  0  0
   -3.7344   61.3468   -7.8066 C   0  0  0  0  0  0
   -2.4371   61.5872   -7.5889 C   0  0  0  0  0  0
   -1.4448   60.4574   -7.5363 C   0  0  0  0  0  0
   -2.0092   59.1715   -8.1344 C   0  0  0  0  0  0
   -1.2106   58.0391   -7.6797 N   0  0  0  0  0  0
   -0.9513   57.7555   -6.3940 C   0  0  0  0  0  0
   -1.3440   58.4774   -5.4934 O   0  0  0  0  0  0
   -0.1765   56.4536   -6.1194 C   0  0  0  0  0  0
   -3.4482   58.9900   -7.6573 C   0  0  0  0  0  0
   -4.2225   60.1171   -7.9685 O   0  0  0  0  0  0
   -4.0995   57.8622   -8.4255 C   0  0  0  0  0  0
   -4.5722   57.2424   -7.8480 O   0  0  0  0  0  0
   -4.1307   57.8918   -9.7509 N   0  0  0  0  0  0
   -4.8693   56.7938  -10.4132 C   0  0  0  0  0  0
   -4.3097   55.4129  -10.0572 C   0  0  0  0  0  0
   -3.0091   55.2040  -10.8072 C   0  0  0  0  0  0
   -3.0162   54.6657  -12.1135 C   0  0  0  0  0  0
   -1.7800   55.5104  -10.2055 C   0  0  0  0  0  0
   -1.8107   54.4051  -12.7885 C   0  0  0  0  0  0
   -0.5802   55.2526  -10.8760 C   0  0  0  0  0  0
   -0.5849   54.6906  -12.1599 C   0  0  0  0  0  0
   -3.4311   58.8833  -10.5650 C   0  0  0  0  0  0
   -4.3423   60.0505  -10.9817 C   0  0  0  0  0  0
   -3.6877   61.0925  -11.9078 C   0  0  0  0  0  0
   -0.2540   60.8452   -8.2443 N   0  0  0  0  0  0
   -6.2079   61.3502   -8.1423 H   0  0  0  0  0  0
   -0.8351   57.4400   -8.3648 H   0  0  0  0  0  0
    0.4180   60.0781   -8.2250 H   0  0  0  0  0  0
    0.1545   61.6665   -7.7981 H   0  0  0  0  0  0
  1  2  2  0  0  0
  1  3  1  0  0  0
  1  4  1  0  0  0
  3 29  1  0  0  0
  4  5  2  0  0  0
  4 13  1  0  0  0
  5  6  1  0  0  0
  6  7  1  0  0  0
  6 28  1  0  0  0
  7  8  1  0  0  0
  7 12  1  0  0  0
  8  9  1  0  0  0
  8 30  1  0  0  0
  9 10  2  0  0  0
  9 11  1  0  0  0
 12 13  1  0  0  0
 12 14  1  0  0  0
 14 15  2  0  0  0
 14 16  1  0  0  0
 16 17  1  0  0  0
 16 25  1  0  0  0
 17 18  1  0  0  0
 18 19  1  0  0  0
 19 20  2  0  0  0
 19 21  1  0  0  0
 20 22  1  0  0  0
 21 23  2  0  0  0
 22 24  2  0  0  0
 23 24  1  0  0  0
 25 26  1  0  0  0
 26 27  1  0  0  0
 28 31  1  0  0  0
 28 32  1  0  0  0
M  END
>  <CHROM.0>
68.50221621,-58.45841632,-62.36795454,68.94140019,-17.47525832,132.74466403
-40.70001002,-158.58966243,54.79583808,-145.78164889,-94.09725722

>  <CHROM.1>
178.99205098,4.20386249,-179.13026108,54.02124478,132.91604772,-58.71812183
-96.55297573,-74.88726346,-87.44476311,-176.74153349,-2.89575046,58.52898058
-8.98662927,1.88207191,-0.77907094,0.67985587

>  <FORMUL>
      DPC    C20 H27 N3 O5

>  <HET>
 DPC  A 466      28

>  <HETNAM>
     DPC 5-ACETYLAMINO-4-AMINO-6-(PHENETHYL-PROPYL-CARBAMOYL)-5,
   2 DPC 6-DIHYDRO-4H-PYRAN-2-CARBOXYLIC ACID

>  <Name>
DPC.pdb

>  <RI>
2.15877e+07

>  <Rbt.Current_Directory>
/home/malgorzata/Desktop/rDOCK_IFD/Wyniki/11_neuraminidase/IFD

>  <Rbt.Executable>
rbdock ($Id: //depot/dev/client3/rdock/2013.1/src/exe/rbdock.cxx#4 $)

>  <Rbt.Library>
libRbt.so (2013.1, Build901 2013/11/27)

>  <Rbt.Parameter_File>
/home/malgorzata/Desktop/rDock_2013.1_src/data/scripts/dock.prm

>  <Rbt.Receptor>
cavity.prm

>  <SCORE>
-46.4818

>  <SCORE.INTER>
-12.1809

>  <SCORE.INTER.CONST>
1

>  <SCORE.INTER.POLAR>
-2.74376

>  <SCORE.INTER.REPUL>
0

>  <SCORE.INTER.ROT>
9

>  <SCORE.INTER.VDW>
-17.2521

>  <SCORE.INTER.norm>
-0.435031

>  <SCORE.INTRA>
-1.60993

>  <SCORE.INTRA.DIHEDRAL>
-1.41815

>  <SCORE.INTRA.DIHEDRAL.0>
7.68839

>  <SCORE.INTRA.POLAR>
-0.0187464

>  <SCORE.INTRA.POLAR.0>
0

>  <SCORE.INTRA.REPUL>
0

>  <SCORE.INTRA.REPUL.0>
0

>  <SCORE.INTRA.VDW>
-0.837116

>  <SCORE.INTRA.VDW.0>
-2.73227

>  <SCORE.INTRA.norm>
-0.0574974

>  <SCORE.RESTR>
0

>  <SCORE.RESTR.CAVITY>
0

>  <SCORE.RESTR.norm>
0

>  <SCORE.SYSTEM>
-32.691

>  <SCORE.SYSTEM.CONST>
0

>  <SCORE.SYSTEM.DIHEDRAL>
4.54461

>  <SCORE.SYSTEM.POLAR>
-9.76227

>  <SCORE.SYSTEM.VDW>
-1.77161

>  <SCORE.SYSTEM.norm>
-1.16754

>  <SCORE.heavy>
28

>  <SCORE.norm>
-1.66007

$$$$
