DPC.pdb
  rDOCK(R)          3D
libRbt.so/2013.1/901 2013/11/27
 32 33  0  0  0  0  0  0  0  0999 V2000
   -1.7421   55.9876   -7.7616 C   0  0  0  0  0  0
   -1.8910   54.9621   -8.4159 O   0  0  0  0  0  0
   -0.9169   56.0166   -6.8585 O   0  0  0  0  0  0
   -2.4761   57.2014   -8.1621 C   0  0  0  0  0  0
   -2.3324   58.3468   -7.4871 C   0  0  0  0  0  0
   -3.0412   59.5963   -7.9348 C   0  0  0  0  0  0
   -4.1701   59.2935   -8.9165 C   0  0  0  0  0  0
   -4.5239   60.5133   -9.6332 N   0  0  0  0  0  0
   -5.6973   61.1537   -9.5166 C   0  0  0  0  0  0
   -6.5914   60.7167   -8.8124 O   0  0  0  0  0  0
   -5.8335   62.4844  -10.2791 C   0  0  0  0  0  0
   -3.6904   58.2474   -9.9200 C   0  0  0  0  0  0
   -3.2245   57.1008   -9.2605 O   0  0  0  0  0  0
   -4.8610   57.7587  -10.7429 C   0  0  0  0  0  0
   -5.4938   57.2417  -10.2201 O   0  0  0  0  0  0
   -5.0240   58.1876  -11.9871 N   0  0  0  0  0  0
   -6.2467   57.7287  -12.6830 C   0  0  0  0  0  0
   -7.4584   58.6177  -12.3862 C   0  0  0  0  0  0
   -8.5790   58.2512  -13.3389 C   0  0  0  0  0  0
   -9.2970   59.2601  -14.0191 C   0  0  0  0  0  0
   -8.9409   56.9106  -13.5346 C   0  0  0  0  0  0
  -10.3820   58.9317  -14.8510 C   0  0  0  0  0  0
  -10.0192   56.5823  -14.3624 C   0  0  0  0  0  0
  -10.7514   57.5840  -15.0140 C   0  0  0  0  0  0
   -4.0495   59.0051  -12.7063 C   0  0  0  0  0  0
   -4.4684   60.4829  -12.7885 C   0  0  0  0  0  0
   -3.5044   61.3930  -13.5724 C   0  0  0  0  0  0
   -3.5650   60.2777   -6.7812 N   0  0  0  0  0  0
   -0.8806   56.7532   -6.2806 H   0  0  0  0  0  0
   -3.8541   60.8941  -10.2461 H   0  0  0  0  0  0
   -4.0644   61.1158   -7.0790 H   0  0  0  0  0  0
   -2.7969   60.5410   -6.1639 H   0  0  0  0  0  0
  1  2  2  0  0  0
  1  3  1  0  0  0
  1  4  1  0  0  0
  3 29  1  0  0  0
  4  5  2  0  0  0
  4 13  1  0  0  0
  5  6  1  0  0  0
  6  7  1  0  0  0
  6 28  1  0  0  0
  7  8  1  0  0  0
  7 12  1  0  0  0
  8  9  1  0  0  0
  8 30  1  0  0  0
  9 10  2  0  0  0
  9 11  1  0  0  0
 12 13  1  0  0  0
 12 14  1  0  0  0
 14 15  2  0  0  0
 14 16  1  0  0  0
 16 17  1  0  0  0
 16 25  1  0  0  0
 17 18  1  0  0  0
 18 19  1  0  0  0
 19 20  2  0  0  0
 19 21  1  0  0  0
 20 22  1  0  0  0
 21 23  2  0  0  0
 22 24  2  0  0  0
 23 24  1  0  0  0
 25 26  1  0  0  0
 26 27  1  0  0  0
 28 31  1  0  0  0
 28 32  1  0  0  0
M  END
>  <CHROM.0>
-89.92560057,-70.85315005,104.62413372,-58.01745661,-78.50009186,-21.51911024
-52.88719073,68.72324074,160.96412650,176.63711850

>  <CHROM.1>
-171.57044420,-179.21305053,-178.79039026,-113.43352585,-68.20321704,85.42531087
-103.60815801,168.81846371,-133.29707994,-178.20675027,-5.22058481,58.58029270
-10.70236987,0.01569540,0.75024970,-3.04896439

>  <FORMUL>
      DPC    C20 H27 N3 O5

>  <HET>
 DPC  A 466      28

>  <HETNAM>
     DPC 5-ACETYLAMINO-4-AMINO-6-(PHENETHYL-PROPYL-CARBAMOYL)-5,
   2 DPC 6-DIHYDRO-4H-PYRAN-2-CARBOXYLIC ACID

>  <Name>
DPC.pdb

>  <RI>
0

>  <Rbt.Current_Directory>
/home/malgorzata/Desktop/rDOCK_IFD/Wyniki/11_neuraminidase/IFD

>  <Rbt.Executable>
rbdock ($Id: //depot/dev/client3/rdock/2013.1/src/exe/rbdock.cxx#4 $)

>  <Rbt.Library>
libRbt.so (2013.1, Build901 2013/11/27)

>  <Rbt.Parameter_File>
/home/malgorzata/Desktop/rDock_2013.1_src/data/scripts/dock.prm

>  <Rbt.Receptor>
cavity.prm

>  <SCORE>
-29.4805

>  <SCORE.INTER>
-8.18987

>  <SCORE.INTER.CONST>
1

>  <SCORE.INTER.POLAR>
-1.93292

>  <SCORE.INTER.REPUL>
0.0639367

>  <SCORE.INTER.ROT>
9

>  <SCORE.INTER.VDW>
-16.3376

>  <SCORE.INTER.norm>
-0.292495

>  <SCORE.INTRA>
0.118187

>  <SCORE.INTRA.DIHEDRAL>
0.646429

>  <SCORE.INTRA.DIHEDRAL.0>
7.68839

>  <SCORE.INTRA.POLAR>
0

>  <SCORE.INTRA.POLAR.0>
0

>  <SCORE.INTRA.REPUL>
0

>  <SCORE.INTRA.REPUL.0>
0

>  <SCORE.INTRA.VDW>
-0.205028

>  <SCORE.INTRA.VDW.0>
-2.73227

>  <SCORE.INTRA.norm>
0.00422095

>  <SCORE.RESTR>
0

>  <SCORE.RESTR.CAVITY>
0

>  <SCORE.RESTR.norm>
0

>  <SCORE.SYSTEM>
-21.4088

>  <SCORE.SYSTEM.CONST>
0

>  <SCORE.SYSTEM.DIHEDRAL>
4.50556

>  <SCORE.SYSTEM.POLAR>
-6.75413

>  <SCORE.SYSTEM.REPUL>
0.11551

>  <SCORE.SYSTEM.VDW>
-1.27506

>  <SCORE.SYSTEM.norm>
-0.764599

>  <SCORE.heavy>
28

>  <SCORE.norm>
-1.05287

$$$$
DPC.pdb
  rDOCK(R)          3D
libRbt.so/2013.1/901 2013/11/27
 32 33  0  0  0  0  0  0  0  0999 V2000
   -4.4108   59.4751   -5.8908 C   0  0  0  0  0  0
   -4.5177   60.2667   -4.9614 O   0  0  0  0  0  0
   -3.9794   58.3491   -5.6822 O   0  0  0  0  0  0
   -4.9227   59.8609   -7.2181 C   0  0  0  0  0  0
   -5.3031   61.1177   -7.4705 C   0  0  0  0  0  0
   -5.7718   61.5174   -8.8432 C   0  0  0  0  0  0
   -6.1227   60.3063   -9.7035 C   0  0  0  0  0  0
   -6.1460   60.7039  -11.1064 N   0  0  0  0  0  0
   -7.2540   61.0342  -11.7875 C   0  0  0  0  0  0
   -8.3567   60.9785  -11.2707 O   0  0  0  0  0  0
   -7.0521   61.5280  -13.2319 C   0  0  0  0  0  0
   -5.0564   59.2309   -9.5081 C   0  0  0  0  0  0
   -4.9168   58.9083   -8.1505 O   0  0  0  0  0  0
   -5.5100   57.9424  -10.1564 C   0  0  0  0  0  0
   -6.4275   57.9852  -10.4685 O   0  0  0  0  0  0
   -4.6347   56.9759  -10.3980 N   0  0  0  0  0  0
   -5.1504   55.7906  -11.1184 C   0  0  0  0  0  0
   -4.4899   55.6041  -12.4879 C   0  0  0  0  0  0
   -5.1422   56.5481  -13.4782 C   0  0  0  0  0  0
   -4.8353   57.9272  -13.4593 C   0  0  0  0  0  0
   -6.0822   56.0743  -14.4047 C   0  0  0  0  0  0
   -5.4874   58.8192  -14.3287 C   0  0  0  0  0  0
   -6.7310   56.9601  -15.2707 C   0  0  0  0  0  0
   -6.4496   58.3326  -15.2324 C   0  0  0  0  0  0
   -3.2482   56.9920   -9.9370 C   0  0  0  0  0  0
   -2.9623   55.8973   -8.8948 C   0  0  0  0  0  0
   -1.5078   55.8372   -8.3921 C   0  0  0  0  0  0
   -6.9188   62.3763   -8.7160 N   0  0  0  0  0  0
   -3.7077   58.1040   -4.8196 H   0  0  0  0  0  0
   -5.2878   60.7320  -11.5880 H   0  0  0  0  0  0
   -6.6344   63.2643   -8.3024 H   0  0  0  0  0  0
   -7.6135   61.9295   -8.1174 H   0  0  0  0  0  0
  1  2  2  0  0  0
  1  3  1  0  0  0
  1  4  1  0  0  0
  3 29  1  0  0  0
  4  5  2  0  0  0
  4 13  1  0  0  0
  5  6  1  0  0  0
  6  7  1  0  0  0
  6 28  1  0  0  0
  7  8  1  0  0  0
  7 12  1  0  0  0
  8  9  1  0  0  0
  8 30  1  0  0  0
  9 10  2  0  0  0
  9 11  1  0  0  0
 12 13  1  0  0  0
 12 14  1  0  0  0
 14 15  2  0  0  0
 14 16  1  0  0  0
 16 17  1  0  0  0
 16 25  1  0  0  0
 17 18  1  0  0  0
 18 19  1  0  0  0
 19 20  2  0  0  0
 19 21  1  0  0  0
 20 22  1  0  0  0
 21 23  2  0  0  0
 22 24  2  0  0  0
 23 24  1  0  0  0
 25 26  1  0  0  0
 26 27  1  0  0  0
 28 31  1  0  0  0
 28 32  1  0  0  0
M  END
>  <CHROM.0>
-87.84506213,60.42316344,-63.12982181,-179.77974949,-79.51488727,173.81279781
-157.39474057,105.72107995,94.00157519,-9.09461675

>  <CHROM.1>
-1.88981054,10.55588203,67.97408175,-96.88787672,-7.78409387,116.28817803
113.37763134,-79.84283876,75.79521148,178.57719725,-5.32954861,58.71716448
-10.31474235,-1.23062689,0.95999634,-2.10725448

>  <FORMUL>
      DPC    C20 H27 N3 O5

>  <HET>
 DPC  A 466      28

>  <HETNAM>
     DPC 5-ACETYLAMINO-4-AMINO-6-(PHENETHYL-PROPYL-CARBAMOYL)-5,
   2 DPC 6-DIHYDRO-4H-PYRAN-2-CARBOXYLIC ACID

>  <Name>
DPC.pdb

>  <RI>
0

>  <Rbt.Current_Directory>
/home/malgorzata/Desktop/rDOCK_IFD/Wyniki/11_neuraminidase/IFD

>  <Rbt.Executable>
rbdock ($Id: //depot/dev/client3/rdock/2013.1/src/exe/rbdock.cxx#4 $)

>  <Rbt.Library>
libRbt.so (2013.1, Build901 2013/11/27)

>  <Rbt.Parameter_File>
/home/malgorzata/Desktop/rDock_2013.1_src/data/scripts/dock.prm

>  <Rbt.Receptor>
cavity.prm

>  <SCORE>
-21.7496

>  <SCORE.INTER>
-12.4332

>  <SCORE.INTER.CONST>
1

>  <SCORE.INTER.POLAR>
-2.0958

>  <SCORE.INTER.REPUL>
0.0140763

>  <SCORE.INTER.ROT>
9

>  <SCORE.INTER.VDW>
-19.7778

>  <SCORE.INTER.norm>
-0.444042

>  <SCORE.INTRA>
0.0774009

>  <SCORE.INTRA.DIHEDRAL>
-0.716683

>  <SCORE.INTRA.DIHEDRAL.0>
7.68839

>  <SCORE.INTRA.POLAR>
0

>  <SCORE.INTRA.POLAR.0>
0

>  <SCORE.INTRA.REPUL>
0

>  <SCORE.INTRA.REPUL.0>
0

>  <SCORE.INTRA.VDW>
0.435742

>  <SCORE.INTRA.VDW.0>
-2.73227

>  <SCORE.INTRA.norm>
0.00276432

>  <SCORE.RESTR>
0

>  <SCORE.RESTR.CAVITY>
0

>  <SCORE.RESTR.norm>
0

>  <SCORE.SYSTEM>
-9.39381

>  <SCORE.SYSTEM.CONST>
0

>  <SCORE.SYSTEM.DIHEDRAL>
4.25896

>  <SCORE.SYSTEM.POLAR>
-4.73128

>  <SCORE.SYSTEM.REPUL>
2.00652

>  <SCORE.SYSTEM.VDW>
-5.4695

>  <SCORE.SYSTEM.norm>
-0.335493

>  <SCORE.heavy>
28

>  <SCORE.norm>
-0.776771

$$$$
DPC.pdb
  rDOCK(R)          3D
libRbt.so/2013.1/901 2013/11/27
 32 33  0  0  0  0  0  0  0  0999 V2000
   -1.5563   55.7317   -8.8171 C   0  0  0  0  0  0
   -1.8360   55.1686   -9.8691 O   0  0  0  0  0  0
   -0.5387   55.4192   -8.2136 O   0  0  0  0  0  0
   -2.3914   56.8605   -8.3690 C   0  0  0  0  0  0
   -2.1535   57.4731   -7.2044 C   0  0  0  0  0  0
   -2.9743   58.6603   -6.7792 C   0  0  0  0  0  0
   -4.2639   58.7833   -7.5864 C   0  0  0  0  0  0
   -4.7886   60.1372   -7.4506 N   0  0  0  0  0  0
   -5.9281   60.4539   -6.8167 C   0  0  0  0  0  0
   -6.6459   59.5944   -6.3345 O   0  0  0  0  0  0
   -6.2523   61.9539   -6.6925 C   0  0  0  0  0  0
   -3.9584   58.5126   -9.0577 C   0  0  0  0  0  0
   -3.3373   57.2653   -9.2166 O   0  0  0  0  0  0
   -5.2521   58.3899   -9.8308 C   0  0  0  0  0  0
   -5.6746   57.5244   -9.7150 O   0  0  0  0  0  0
   -5.7743   59.4538  -10.4257 N   0  0  0  0  0  0
   -7.0876   59.2597  -11.0795 C   0  0  0  0  0  0
   -6.9782   59.1940  -12.6061 C   0  0  0  0  0  0
   -8.3167   58.7663  -13.1744 C   0  0  0  0  0  0
   -8.6008   57.3978  -13.3808 C   0  0  0  0  0  0
   -9.2786   59.7213  -13.5336 C   0  0  0  0  0  0
   -9.8126   56.9978  -13.9712 C   0  0  0  0  0  0
  -10.4847   59.3250  -14.1201 C   0  0  0  0  0  0
  -10.7553   57.9698  -14.3531 C   0  0  0  0  0  0
   -5.1032   60.7478  -10.5272 C   0  0  0  0  0  0
   -3.7271   60.6447  -11.2071 C   0  0  0  0  0  0
   -3.7559   60.1740  -12.6732 C   0  0  0  0  0  0
   -3.2824   58.5406   -5.3791 N   0  0  0  0  0  0
   -0.0783   54.6367   -8.4454 H   0  0  0  0  0  0
   -4.2699   60.8710   -7.8526 H   0  0  0  0  0  0
   -3.4779   57.5646   -5.1562 H   0  0  0  0  0  0
   -4.1005   59.1096   -5.1612 H   0  0  0  0  0  0
  1  2  2  0  0  0
  1  3  1  0  0  0
  1  4  1  0  0  0
  3 29  1  0  0  0
  4  5  2  0  0  0
  4 13  1  0  0  0
  5  6  1  0  0  0
  6  7  1  0  0  0
  6 28  1  0  0  0
  7  8  1  0  0  0
  7 12  1  0  0  0
  8  9  1  0  0  0
  8 30  1  0  0  0
  9 10  2  0  0  0
  9 11  1  0  0  0
 12 13  1  0  0  0
 12 14  1  0  0  0
 14 15  2  0  0  0
 14 16  1  0  0  0
 16 17  1  0  0  0
 16 25  1  0  0  0
 17 18  1  0  0  0
 18 19  1  0  0  0
 19 20  2  0  0  0
 19 21  1  0  0  0
 20 22  1  0  0  0
 21 23  2  0  0  0
 22 24  2  0  0  0
 23 24  1  0  0  0
 25 26  1  0  0  0
 26 27  1  0  0  0
 28 31  1  0  0  0
 28 32  1  0  0  0
M  END
>  <CHROM.0>
-90.20404584,64.30337348,104.42845830,176.43674501,-77.27618189,-17.45124051
-156.34034212,121.82693432,96.75256819,172.39160728

>  <CHROM.1>
-13.38360864,177.53784334,-38.50653161,-112.66723880,-78.52768843,-105.05707114
56.51751547,170.65862961,-90.67533169,63.34474107,-5.28570044,58.56287007
-9.86182514,-0.50061862,0.59195559,-2.17935665

>  <FORMUL>
      DPC    C20 H27 N3 O5

>  <HET>
 DPC  A 466      28

>  <HETNAM>
     DPC 5-ACETYLAMINO-4-AMINO-6-(PHENETHYL-PROPYL-CARBAMOYL)-5,
   2 DPC 6-DIHYDRO-4H-PYRAN-2-CARBOXYLIC ACID

>  <Name>
DPC.pdb

>  <RI>
0

>  <Rbt.Current_Directory>
/home/malgorzata/Desktop/rDOCK_IFD/Wyniki/11_neuraminidase/IFD

>  <Rbt.Executable>
rbdock ($Id: //depot/dev/client3/rdock/2013.1/src/exe/rbdock.cxx#4 $)

>  <Rbt.Library>
libRbt.so (2013.1, Build901 2013/11/27)

>  <Rbt.Parameter_File>
/home/malgorzata/Desktop/rDock_2013.1_src/data/scripts/dock.prm

>  <Rbt.Receptor>
cavity.prm

>  <SCORE>
-42.2421

>  <SCORE.INTER>
-19.0176

>  <SCORE.INTER.CONST>
1

>  <SCORE.INTER.POLAR>
-3.80549

>  <SCORE.INTER.REPUL>
0.00667839

>  <SCORE.INTER.ROT>
9

>  <SCORE.INTER.VDW>
-20.5123

>  <SCORE.INTER.norm>
-0.679199

>  <SCORE.INTRA>
0.713149

>  <SCORE.INTRA.DIHEDRAL>
0.599962

>  <SCORE.INTRA.DIHEDRAL.0>
7.68839

>  <SCORE.INTRA.POLAR>
0

>  <SCORE.INTRA.POLAR.0>
0

>  <SCORE.INTRA.REPUL>
0

>  <SCORE.INTRA.REPUL.0>
0

>  <SCORE.INTRA.VDW>
0.413168

>  <SCORE.INTRA.VDW.0>
-2.73227

>  <SCORE.INTRA.norm>
0.0254696

>  <SCORE.RESTR>
0

>  <SCORE.RESTR.CAVITY>
0

>  <SCORE.RESTR.norm>
0

>  <SCORE.SYSTEM>
-23.9376

>  <SCORE.SYSTEM.CONST>
0

>  <SCORE.SYSTEM.DIHEDRAL>
4.01944

>  <SCORE.SYSTEM.POLAR>
-6.7861

>  <SCORE.SYSTEM.REPUL>
0.506916

>  <SCORE.SYSTEM.VDW>
-5.40919

>  <SCORE.SYSTEM.norm>
-0.854915

>  <SCORE.heavy>
28

>  <SCORE.norm>
-1.50864

$$$$
DPC.pdb
  rDOCK(R)          3D
libRbt.so/2013.1/901 2013/11/27
 32 33  0  0  0  0  0  0  0  0999 V2000
   -1.1446   55.8156   -7.0562 C   0  0  0  0  0  0
   -1.1615   54.8109   -7.7578 O   0  0  0  0  0  0
   -0.3993   55.8664   -6.0871 O   0  0  0  0  0  0
   -1.9349   56.9883   -7.4717 C   0  0  0  0  0  0
   -1.8882   58.1307   -6.7783 C   0  0  0  0  0  0
   -2.6537   59.3411   -7.2395 C   0  0  0  0  0  0
   -3.7225   58.9844   -8.2692 C   0  0  0  0  0  0
   -4.1216   60.1905   -8.9853 N   0  0  0  0  0  0
   -5.3523   60.7243   -8.9542 C   0  0  0  0  0  0
   -6.2597   60.1914   -8.3386 O   0  0  0  0  0  0
   -5.5414   62.0609   -9.6949 C   0  0  0  0  0  0
   -3.1407   57.9834   -9.2647 C   0  0  0  0  0  0
   -2.6320   56.8580   -8.6004 O   0  0  0  0  0  0
   -4.2460   57.4364  -10.1396 C   0  0  0  0  0  0
   -5.0408   57.2045   -9.6342 O   0  0  0  0  0  0
   -4.1294   57.4753  -11.4600 N   0  0  0  0  0  0
   -5.2985   57.0033  -12.2347 C   0  0  0  0  0  0
   -6.1775   58.1561  -12.7297 C   0  0  0  0  0  0
   -7.2518   57.5957  -13.6405 C   0  0  0  0  0  0
   -8.6164   57.7184  -13.2955 C   0  0  0  0  0  0
   -6.9077   56.9201  -14.8202 C   0  0  0  0  0  0
   -9.6145   57.1413  -14.1002 C   0  0  0  0  0  0
   -7.8993   56.3464  -15.6221 C   0  0  0  0  0  0
   -9.2513   56.4413  -15.2653 C   0  0  0  0  0  0
   -2.9141   57.8792  -12.1637 C   0  0  0  0  0  0
   -2.5991   59.3740  -11.9825 C   0  0  0  0  0  0
   -3.6659   60.3384  -12.5336 C   0  0  0  0  0  0
   -3.2632   59.9733   -6.1000 N   0  0  0  0  0  0
    0.1122   55.1180   -5.8498 H   0  0  0  0  0  0
   -3.4395   60.6455   -9.5302 H   0  0  0  0  0  0
   -3.9235   59.3282   -5.6660 H   0  0  0  0  0  0
   -3.7568   60.8136   -6.4010 H   0  0  0  0  0  0
  1  2  2  0  0  0
  1  3  1  0  0  0
  1  4  1  0  0  0
  3 29  1  0  0  0
  4  5  2  0  0  0
  4 13  1  0  0  0
  5  6  1  0  0  0
  6  7  1  0  0  0
  6 28  1  0  0  0
  7  8  1  0  0  0
  7 12  1  0  0  0
  8  9  1  0  0  0
  8 30  1  0  0  0
  9 10  2  0  0  0
  9 11  1  0  0  0
 12 13  1  0  0  0
 12 14  1  0  0  0
 14 15  2  0  0  0
 14 16  1  0  0  0
 16 17  1  0  0  0
 16 25  1  0  0  0
 17 18  1  0  0  0
 18 19  1  0  0  0
 19 20  2  0  0  0
 19 21  1  0  0  0
 20 22  1  0  0  0
 21 23  2  0  0  0
 22 24  2  0  0  0
 23 24  1  0  0  0
 25 26  1  0  0  0
 26 27  1  0  0  0
 28 31  1  0  0  0
 28 32  1  0  0  0
M  END
>  <CHROM.0>
38.18212431,-67.96044183,-163.76334271,-56.83264870,-78.92952990,-6.00249756
-159.43872863,107.93839485,97.27941416,178.38478415

>  <CHROM.1>
-4.17847676,-176.23175076,-61.98215088,-116.47714225,-44.13860194,98.61567522
-68.12309573,173.54736646,117.53385066,-61.99465190,-4.45602056,58.05020544
-10.26924247,-0.45012302,0.78795951,-2.56857283

>  <FORMUL>
      DPC    C20 H27 N3 O5

>  <HET>
 DPC  A 466      28

>  <HETNAM>
     DPC 5-ACETYLAMINO-4-AMINO-6-(PHENETHYL-PROPYL-CARBAMOYL)-5,
   2 DPC 6-DIHYDRO-4H-PYRAN-2-CARBOXYLIC ACID

>  <Name>
DPC.pdb

>  <RI>
0

>  <Rbt.Current_Directory>
/home/malgorzata/Desktop/rDOCK_IFD/Wyniki/11_neuraminidase/IFD

>  <Rbt.Executable>
rbdock ($Id: //depot/dev/client3/rdock/2013.1/src/exe/rbdock.cxx#4 $)

>  <Rbt.Library>
libRbt.so (2013.1, Build901 2013/11/27)

>  <Rbt.Parameter_File>
/home/malgorzata/Desktop/rDock_2013.1_src/data/scripts/dock.prm

>  <Rbt.Receptor>
cavity.prm

>  <SCORE>
-34.6522

>  <SCORE.INTER>
-9.84265

>  <SCORE.INTER.CONST>
1

>  <SCORE.INTER.POLAR>
-2.07365

>  <SCORE.INTER.REPUL>
0.0716437

>  <SCORE.INTER.ROT>
9

>  <SCORE.INTER.VDW>
-17.5504

>  <SCORE.INTER.norm>
-0.351523

>  <SCORE.INTRA>
-0.728142

>  <SCORE.INTRA.DIHEDRAL>
-0.68665

>  <SCORE.INTRA.DIHEDRAL.0>
7.68839

>  <SCORE.INTRA.POLAR>
0

>  <SCORE.INTRA.POLAR.0>
0

>  <SCORE.INTRA.REPUL>
0

>  <SCORE.INTRA.REPUL.0>
0

>  <SCORE.INTRA.VDW>
-0.384817

>  <SCORE.INTRA.VDW.0>
-2.73227

>  <SCORE.INTRA.norm>
-0.0260051

>  <SCORE.RESTR>
0

>  <SCORE.RESTR.CAVITY>
0

>  <SCORE.RESTR.norm>
0

>  <SCORE.SYSTEM>
-24.0815

>  <SCORE.SYSTEM.CONST>
0

>  <SCORE.SYSTEM.DIHEDRAL>
4.38963

>  <SCORE.SYSTEM.POLAR>
-7.24442

>  <SCORE.SYSTEM.VDW>
-1.64526

>  <SCORE.SYSTEM.norm>
-0.860052

>  <SCORE.heavy>
28

>  <SCORE.norm>
-1.23758

$$$$
DPC.pdb
  rDOCK(R)          3D
libRbt.so/2013.1/901 2013/11/27
 32 33  0  0  0  0  0  0  0  0999 V2000
   -2.6398   57.3133   -7.2826 C   0  0  0  0  0  0
   -1.7771   57.2870   -6.4126 O   0  0  0  0  0  0
   -2.9092   56.2923   -7.9008 O   0  0  0  0  0  0
   -3.4193   58.5492   -7.4763 C   0  0  0  0  0  0
   -3.4042   59.5232   -6.5602 C   0  0  0  0  0  0
   -4.1574   60.8054   -6.7899 C   0  0  0  0  0  0
   -5.1847   60.6729   -7.9110 C   0  0  0  0  0  0
   -5.5620   62.0024   -8.3767 N   0  0  0  0  0  0
   -6.8241   62.4091   -8.5824 C   0  0  0  0  0  0
   -7.7675   61.6521   -8.4299 O   0  0  0  0  0  0
   -7.0158   63.8860   -8.9735 C   0  0  0  0  0  0
   -4.5608   59.8977   -9.0692 C   0  0  0  0  0  0
   -4.0724   58.6575   -8.6332 O   0  0  0  0  0  0
   -5.6296   59.5471  -10.0798 C   0  0  0  0  0  0
   -6.5258   59.7067   -9.7446 O   0  0  0  0  0  0
   -5.2918   59.2387  -11.3245 N   0  0  0  0  0  0
   -6.4083   59.0008  -12.2660 C   0  0  0  0  0  0
   -6.8061   57.5233  -12.3418 C   0  0  0  0  0  0
   -7.9066   57.3654  -13.3722 C   0  0  0  0  0  0
   -9.0809   58.1466  -13.2888 C   0  0  0  0  0  0
   -7.7908   56.4211  -14.4025 C   0  0  0  0  0  0
  -10.1347   57.9572  -14.2002 C   0  0  0  0  0  0
   -8.8377   56.2323  -15.3102 C   0  0  0  0  0  0
  -10.0154   56.9853  -15.2104 C   0  0  0  0  0  0
   -3.9150   59.0560  -11.7786 C   0  0  0  0  0  0
   -3.2412   60.3846  -12.1621 C   0  0  0  0  0  0
   -1.7971   60.2589  -12.6826 C   0  0  0  0  0  0
   -4.8126   61.1901   -5.5683 N   0  0  0  0  0  0
   -2.3945   55.5193   -7.7758 H   0  0  0  0  0  0
   -4.8393   62.6473   -8.5527 H   0  0  0  0  0  0
   -4.1125   61.3641   -4.8472 H   0  0  0  0  0  0
   -5.4340   60.4402   -5.2651 H   0  0  0  0  0  0
  1  2  2  0  0  0
  1  3  1  0  0  0
  1  4  1  0  0  0
  3 29  1  0  0  0
  4  5  2  0  0  0
  4 13  1  0  0  0
  5  6  1  0  0  0
  6  7  1  0  0  0
  6 28  1  0  0  0
  7  8  1  0  0  0
  7 12  1  0  0  0
  8  9  1  0  0  0
  8 30  1  0  0  0
  9 10  2  0  0  0
  9 11  1  0  0  0
 12 13  1  0  0  0
 12 14  1  0  0  0
 14 15  2  0  0  0
 14 16  1  0  0  0
 16 17  1  0  0  0
 16 25  1  0  0  0
 17 18  1  0  0  0
 18 19  1  0  0  0
 19 20  2  0  0  0
 19 21  1  0  0  0
 20 22  1  0  0  0
 21 23  2  0  0  0
 22 24  2  0  0  0
 23 24  1  0  0  0
 25 26  1  0  0  0
 26 27  1  0  0  0
 28 31  1  0  0  0
 28 32  1  0  0  0
M  END
>  <CHROM.0>
-89.26091520,178.86316448,-72.85265422,64.84053355,-76.98491425,2.34254136
-156.61733428,104.44300328,102.39794911,175.40694081

>  <CHROM.1>
-6.71416062,-14.17952891,62.26017861,-133.22661899,-11.57683039,-92.44495996
-84.78304685,-177.38576684,-53.69480414,-178.58210055,-5.55418560,59.24384524
-10.12889707,-0.83256750,0.63418641,-2.38356290

>  <FORMUL>
      DPC    C20 H27 N3 O5

>  <HET>
 DPC  A 466      28

>  <HETNAM>
     DPC 5-ACETYLAMINO-4-AMINO-6-(PHENETHYL-PROPYL-CARBAMOYL)-5,
   2 DPC 6-DIHYDRO-4H-PYRAN-2-CARBOXYLIC ACID

>  <Name>
DPC.pdb

>  <RI>
0

>  <Rbt.Current_Directory>
/home/malgorzata/Desktop/rDOCK_IFD/Wyniki/11_neuraminidase/IFD

>  <Rbt.Executable>
rbdock ($Id: //depot/dev/client3/rdock/2013.1/src/exe/rbdock.cxx#4 $)

>  <Rbt.Library>
libRbt.so (2013.1, Build901 2013/11/27)

>  <Rbt.Parameter_File>
/home/malgorzata/Desktop/rDock_2013.1_src/data/scripts/dock.prm

>  <Rbt.Receptor>
cavity.prm

>  <SCORE>
-31.3446

>  <SCORE.INTER>
-8.12297

>  <SCORE.INTER.CONST>
1

>  <SCORE.INTER.POLAR>
-2.92613

>  <SCORE.INTER.REPUL>
0.607932

>  <SCORE.INTER.ROT>
9

>  <SCORE.INTER.VDW>
-15.6138

>  <SCORE.INTER.norm>
-0.290106

>  <SCORE.INTRA>
1.64239

>  <SCORE.INTRA.DIHEDRAL>
-0.928831

>  <SCORE.INTRA.DIHEDRAL.0>
7.68839

>  <SCORE.INTRA.POLAR>
0

>  <SCORE.INTRA.POLAR.0>
0

>  <SCORE.INTRA.REPUL>
0

>  <SCORE.INTRA.REPUL.0>
0

>  <SCORE.INTRA.VDW>
2.10681

>  <SCORE.INTRA.VDW.0>
-2.73227

>  <SCORE.INTRA.norm>
0.0586569

>  <SCORE.RESTR>
0.308884

>  <SCORE.RESTR.CAVITY>
0.308884

>  <SCORE.RESTR.norm>
0.0110316

>  <SCORE.SYSTEM>
-25.1729

>  <SCORE.SYSTEM.CONST>
0

>  <SCORE.SYSTEM.DIHEDRAL>
3.90971

>  <SCORE.SYSTEM.POLAR>
-6.92961

>  <SCORE.SYSTEM.REPUL>
0.0381105

>  <SCORE.SYSTEM.VDW>
-3.75764

>  <SCORE.SYSTEM.norm>
-0.899032

>  <SCORE.heavy>
28

>  <SCORE.norm>
-1.11945

$$$$
DPC.pdb
  rDOCK(R)          3D
libRbt.so/2013.1/901 2013/11/27
 32 33  0  0  0  0  0  0  0  0999 V2000
   -8.5883   62.6085   -9.3987 C   0  0  0  0  0  0
   -8.1711   63.1031   -8.3579 O   0  0  0  0  0  0
   -9.6828   62.9416   -9.8327 O   0  0  0  0  0  0
   -7.7038   61.7148  -10.1678 C   0  0  0  0  0  0
   -8.1679   61.0165  -11.2095 C   0  0  0  0  0  0
   -7.2472   60.1494  -12.0245 C   0  0  0  0  0  0
   -5.9311   59.8744  -11.3020 C   0  0  0  0  0  0
   -4.9378   59.4208  -12.2686 N   0  0  0  0  0  0
   -4.0226   58.4683  -12.0323 C   0  0  0  0  0  0
   -3.9312   57.9330  -10.9408 O   0  0  0  0  0  0
   -3.1325   58.0596  -13.2204 C   0  0  0  0  0  0
   -5.4403   61.1660  -10.6520 C   0  0  0  0  0  0
   -6.4212   61.7018   -9.8050 O   0  0  0  0  0  0
   -4.2764   60.8631   -9.7357 C   0  0  0  0  0  0
   -4.3839   60.0233   -9.2622 O   0  0  0  0  0  0
   -3.1872   61.6186   -9.7726 N   0  0  0  0  0  0
   -2.0647   61.1918   -8.9079 C   0  0  0  0  0  0
   -1.1414   60.1848   -9.6009 C   0  0  0  0  0  0
    0.1600   60.1022   -8.8280 C   0  0  0  0  0  0
    1.3915   60.3534   -9.4735 C   0  0  0  0  0  0
    0.1645   59.7442   -7.4722 C   0  0  0  0  0  0
    2.6066   60.2114   -8.7806 C   0  0  0  0  0  0
    1.3723   59.6036   -6.7815 C   0  0  0  0  0  0
    2.5960   59.8230   -7.4285 C   0  0  0  0  0  0
   -3.0725   62.8537  -10.5449 C   0  0  0  0  0  0
   -2.1296   62.7073  -11.7514 C   0  0  0  0  0  0
   -2.5879   61.6981  -12.8207 C   0  0  0  0  0  0
   -7.9115   58.9084  -12.3211 N   0  0  0  0  0  0
  -10.2209   63.5322   -9.3431 H   0  0  0  0  0  0
   -4.9387   59.8435  -13.1577 H   0  0  0  0  0  0
   -8.1951   58.4581  -11.4509 H   0  0  0  0  0  0
   -7.2747   58.2949  -12.8296 H   0  0  0  0  0  0
  1  2  2  0  0  0
  1  3  1  0  0  0
  1  4  1  0  0  0
  3 29  1  0  0  0
  4  5  2  0  0  0
  4 13  1  0  0  0
  5  6  1  0  0  0
  6  7  1  0  0  0
  6 28  1  0  0  0
  7  8  1  0  0  0
  7 12  1  0  0  0
  8  9  1  0  0  0
  8 30  1  0  0  0
  9 10  2  0  0  0
  9 11  1  0  0  0
 12 13  1  0  0  0
 12 14  1  0  0  0
 14 15  2  0  0  0
 14 16  1  0  0  0
 16 17  1  0  0  0
 16 25  1  0  0  0
 17 18  1  0  0  0
 18 19  1  0  0  0
 19 20  2  0  0  0
 19 21  1  0  0  0
 20 22  1  0  0  0
 21 23  2  0  0  0
 22 24  2  0  0  0
 23 24  1  0  0  0
 25 26  1  0  0  0
 26 27  1  0  0  0
 28 31  1  0  0  0
 28 32  1  0  0  0
M  END
>  <CHROM.0>
-85.99231640,-66.28562923,115.75735325,-175.88633439,59.52776086,-26.17140025
-55.85998836,103.38481649,93.82653724,172.21807550

>  <CHROM.1>
-3.76330999,171.18532381,-56.90746644,-141.98590728,-37.58764873,87.50383026
-109.60823730,164.19225678,-123.60727160,63.56173018,-3.89570985,60.65404277
-10.20466532,3.06782800,0.24952470,-2.26525355

>  <FORMUL>
      DPC    C20 H27 N3 O5

>  <HET>
 DPC  A 466      28

>  <HETNAM>
     DPC 5-ACETYLAMINO-4-AMINO-6-(PHENETHYL-PROPYL-CARBAMOYL)-5,
   2 DPC 6-DIHYDRO-4H-PYRAN-2-CARBOXYLIC ACID

>  <Name>
DPC.pdb

>  <RI>
0

>  <Rbt.Current_Directory>
/home/malgorzata/Desktop/rDOCK_IFD/Wyniki/11_neuraminidase/IFD

>  <Rbt.Executable>
rbdock ($Id: //depot/dev/client3/rdock/2013.1/src/exe/rbdock.cxx#4 $)

>  <Rbt.Library>
libRbt.so (2013.1, Build901 2013/11/27)

>  <Rbt.Parameter_File>
/home/malgorzata/Desktop/rDock_2013.1_src/data/scripts/dock.prm

>  <Rbt.Receptor>
cavity.prm

>  <SCORE>
-20.5757

>  <SCORE.INTER>
-1.17761

>  <SCORE.INTER.CONST>
1

>  <SCORE.INTER.POLAR>
-1.13815

>  <SCORE.INTER.REPUL>
0

>  <SCORE.INTER.ROT>
9

>  <SCORE.INTER.VDW>
-11.7079

>  <SCORE.INTER.norm>
-0.0420574

>  <SCORE.INTRA>
-0.222465

>  <SCORE.INTRA.DIHEDRAL>
0.505617

>  <SCORE.INTRA.DIHEDRAL.0>
7.68839

>  <SCORE.INTRA.POLAR>
0

>  <SCORE.INTRA.POLAR.0>
0

>  <SCORE.INTRA.REPUL>
0

>  <SCORE.INTRA.REPUL.0>
0

>  <SCORE.INTRA.VDW>
-0.475273

>  <SCORE.INTRA.VDW.0>
-2.73227

>  <SCORE.INTRA.norm>
-0.00794516

>  <SCORE.RESTR>
0.00308356

>  <SCORE.RESTR.CAVITY>
0.00308356

>  <SCORE.RESTR.norm>
0.000110127

>  <SCORE.SYSTEM>
-19.1787

>  <SCORE.SYSTEM.CONST>
0

>  <SCORE.SYSTEM.DIHEDRAL>
2.76719

>  <SCORE.SYSTEM.POLAR>
-5.43008

>  <SCORE.SYSTEM.REPUL>
0.375433

>  <SCORE.SYSTEM.VDW>
-3.97719

>  <SCORE.SYSTEM.norm>
-0.684954

>  <SCORE.heavy>
28

>  <SCORE.norm>
-0.734846

$$$$
DPC.pdb
  rDOCK(R)          3D
libRbt.so/2013.1/901 2013/11/27
 32 33  0  0  0  0  0  0  0  0999 V2000
   -0.0028   54.2827  -11.3973 C   0  0  0  0  0  0
    1.1695   54.5832  -11.5902 O   0  0  0  0  0  0
   -0.3649   53.1237  -11.5485 O   0  0  0  0  0  0
   -0.9224   55.3050  -10.8665 C   0  0  0  0  0  0
   -0.7305   55.8423   -9.6571 C   0  0  0  0  0  0
   -1.6404   56.9254   -9.1445 C   0  0  0  0  0  0
   -2.9375   57.0097   -9.9447 C   0  0  0  0  0  0
   -3.5659   58.3040   -9.7067 N   0  0  0  0  0  0
   -4.8764   58.4864   -9.4835 C   0  0  0  0  0  0
   -5.6604   57.5532   -9.5101 O   0  0  0  0  0  0
   -5.3241   59.9210   -9.1486 C   0  0  0  0  0  0
   -2.6150   56.8783  -11.4314 C   0  0  0  0  0  0
   -1.8988   55.6993  -11.6839 O   0  0  0  0  0  0
   -3.8968   56.7155  -12.2167 C   0  0  0  0  0  0
   -4.2619   55.8190  -12.1521 O   0  0  0  0  0  0
   -4.4868   57.7750  -12.7532 N   0  0  0  0  0  0
   -5.7837   57.5329  -13.4234 C   0  0  0  0  0  0
   -6.9782   57.9173  -12.5447 C   0  0  0  0  0  0
   -8.2486   57.7844  -13.3608 C   0  0  0  0  0  0
   -8.7241   56.5090  -13.7399 C   0  0  0  0  0  0
   -8.9520   58.9233  -13.7788 C   0  0  0  0  0  0
   -9.8629   56.3810  -14.5544 C   0  0  0  0  0  0
  -10.0854   58.7975  -14.5882 C   0  0  0  0  0  0
  -10.5407   57.5343  -14.9900 C   0  0  0  0  0  0
   -3.9017   59.1137  -12.7780 C   0  0  0  0  0  0
   -2.6108   59.1758  -13.6122 C   0  0  0  0  0  0
   -1.8742   60.5279  -13.5774 C   0  0  0  0  0  0
   -1.9352   56.6741   -7.7591 N   0  0  0  0  0  0
    0.2124   52.5003  -11.9437 H   0  0  0  0  0  0
   -2.9874   59.1006   -9.7099 H   0  0  0  0  0  0
   -2.5469   55.8613   -7.6837 H   0  0  0  0  0  0
   -2.4004   57.4881   -7.3573 H   0  0  0  0  0  0
  1  2  2  0  0  0
  1  3  1  0  0  0
  1  4  1  0  0  0
  3 29  1  0  0  0
  4  5  2  0  0  0
  4 13  1  0  0  0
  5  6  1  0  0  0
  6  7  1  0  0  0
  6 28  1  0  0  0
  7  8  1  0  0  0
  7 12  1  0  0  0
  8  9  1  0  0  0
  8 30  1  0  0  0
  9 10  2  0  0  0
  9 11  1  0  0  0
 12 13  1  0  0  0
 12 14  1  0  0  0
 14 15  2  0  0  0
 14 16  1  0  0  0
 16 17  1  0  0  0
 16 25  1  0  0  0
 17 18  1  0  0  0
 18 19  1  0  0  0
 19 20  2  0  0  0
 19 21  1  0  0  0
 20 22  1  0  0  0
 21 23  2  0  0  0
 22 24  2  0  0  0
 23 24  1  0  0  0
 25 26  1  0  0  0
 26 27  1  0  0  0
 28 31  1  0  0  0
 28 32  1  0  0  0
M  END
>  <CHROM.0>
-96.93892350,-72.57646845,98.43972279,-64.99332371,-78.19432749,4.63344403
-158.03545427,74.30536055,89.20938320,178.40221861

>  <CHROM.1>
-10.06735042,-62.85303736,-70.70282602,-136.44425803,-77.12414719,100.15842619
63.93949716,173.73626902,69.85954651,-174.77720573,-4.23234176,57.15845754
-11.77169921,-0.08067116,0.45856824,-2.33823030

>  <FORMUL>
      DPC    C20 H27 N3 O5

>  <HET>
 DPC  A 466      28

>  <HETNAM>
     DPC 5-ACETYLAMINO-4-AMINO-6-(PHENETHYL-PROPYL-CARBAMOYL)-5,
   2 DPC 6-DIHYDRO-4H-PYRAN-2-CARBOXYLIC ACID

>  <Name>
DPC.pdb

>  <RI>
0

>  <Rbt.Current_Directory>
/home/malgorzata/Desktop/rDOCK_IFD/Wyniki/11_neuraminidase/IFD

>  <Rbt.Executable>
rbdock ($Id: //depot/dev/client3/rdock/2013.1/src/exe/rbdock.cxx#4 $)

>  <Rbt.Library>
libRbt.so (2013.1, Build901 2013/11/27)

>  <Rbt.Parameter_File>
/home/malgorzata/Desktop/rDock_2013.1_src/data/scripts/dock.prm

>  <Rbt.Receptor>
cavity.prm

>  <SCORE>
-41.0079

>  <SCORE.INTER>
-18.9214

>  <SCORE.INTER.CONST>
1

>  <SCORE.INTER.POLAR>
-2.33

>  <SCORE.INTER.REPUL>
0.112972

>  <SCORE.INTER.ROT>
9

>  <SCORE.INTER.VDW>
-25.9643

>  <SCORE.INTER.norm>
-0.675765

>  <SCORE.INTRA>
3.09005

>  <SCORE.INTRA.DIHEDRAL>
9.26543

>  <SCORE.INTRA.DIHEDRAL.0>
7.68839

>  <SCORE.INTRA.POLAR>
0

>  <SCORE.INTRA.POLAR.0>
0

>  <SCORE.INTRA.REPUL>
0

>  <SCORE.INTRA.REPUL.0>
0

>  <SCORE.INTRA.VDW>
-1.54266

>  <SCORE.INTRA.VDW.0>
-2.73227

>  <SCORE.INTRA.norm>
0.110359

>  <SCORE.RESTR>
0

>  <SCORE.RESTR.CAVITY>
0

>  <SCORE.RESTR.norm>
0

>  <SCORE.SYSTEM>
-25.1766

>  <SCORE.SYSTEM.CONST>
0

>  <SCORE.SYSTEM.DIHEDRAL>
4.79266

>  <SCORE.SYSTEM.POLAR>
-6.88572

>  <SCORE.SYSTEM.REPUL>
0.014733

>  <SCORE.SYSTEM.VDW>
-4.23513

>  <SCORE.SYSTEM.norm>
-0.899163

>  <SCORE.heavy>
28

>  <SCORE.norm>
-1.46457

$$$$
DPC.pdb
  rDOCK(R)          3D
libRbt.so/2013.1/901 2013/11/27
 32 33  0  0  0  0  0  0  0  0999 V2000
   -1.3688   55.0898  -10.9770 C   0  0  0  0  0  0
   -2.4764   55.3394  -11.4385 O   0  0  0  0  0  0
   -0.7681   54.0904  -11.3480 O   0  0  0  0  0  0
   -0.7346   56.0694  -10.0766 C   0  0  0  0  0  0
    0.4368   55.8058   -9.4880 C   0  0  0  0  0  0
    1.1057   56.8323   -8.6146 C   0  0  0  0  0  0
    0.1442   57.9410   -8.1949 C   0  0  0  0  0  0
    0.9107   59.0945   -7.7381 N   0  0  0  0  0  0
    0.7759   59.6721   -6.5345 C   0  0  0  0  0  0
   -0.0569   59.2829   -5.7337 O   0  0  0  0  0  0
    1.7548   60.8142   -6.2060 C   0  0  0  0  0  0
   -0.7010   58.3495   -9.3992 C   0  0  0  0  0  0
   -1.3607   57.2388   -9.9451 O   0  0  0  0  0  0
   -1.8164   59.2660   -8.9494 C   0  0  0  0  0  0
   -1.8179   59.4076   -7.9897 O   0  0  0  0  0  0
   -2.5512   59.9088   -9.8468 N   0  0  0  0  0  0
   -3.5572   60.8540   -9.3135 C   0  0  0  0  0  0
   -4.7639   60.1393   -8.6972 C   0  0  0  0  0  0
   -5.3999   59.2554   -9.7516 C   0  0  0  0  0  0
   -4.9199   57.9445   -9.9693 C   0  0  0  0  0  0
   -6.4501   59.7350  -10.5475 C   0  0  0  0  0  0
   -5.4590   57.1437  -10.9915 C   0  0  0  0  0  0
   -6.9880   58.9393  -11.5640 C   0  0  0  0  0  0
   -6.4925   57.6499  -11.8008 C   0  0  0  0  0  0
   -2.4688   59.6815  -11.2878 C   0  0  0  0  0  0
   -1.2214   60.3276  -11.9146 C   0  0  0  0  0  0
   -1.1535   61.8621  -11.8020 C   0  0  0  0  0  0
    1.6399   56.1802   -7.4488 N   0  0  0  0  0  0
    0.1271   53.9636  -11.1020 H   0  0  0  0  0  0
    1.5743   59.4766   -8.3569 H   0  0  0  0  0  0
    0.9823   56.2750   -6.6749 H   0  0  0  0  0  0
    2.5284   56.6120   -7.1949 H   0  0  0  0  0  0
  1  2  2  0  0  0
  1  3  1  0  0  0
  1  4  1  0  0  0
  3 29  1  0  0  0
  4  5  2  0  0  0
  4 13  1  0  0  0
  5  6  1  0  0  0
  6  7  1  0  0  0
  6 28  1  0  0  0
  7  8  1  0  0  0
  7 12  1  0  0  0
  8  9  1  0  0  0
  8 30  1  0  0  0
  9 10  2  0  0  0
  9 11  1  0  0  0
 12 13  1  0  0  0
 12 14  1  0  0  0
 14 15  2  0  0  0
 14 16  1  0  0  0
 16 17  1  0  0  0
 16 25  1  0  0  0
 17 18  1  0  0  0
 18 19  1  0  0  0
 19 20  2  0  0  0
 19 21  1  0  0  0
 20 22  1  0  0  0
 21 23  2  0  0  0
 22 24  2  0  0  0
 23 24  1  0  0  0
 25 26  1  0  0  0
 26 27  1  0  0  0
 28 31  1  0  0  0
 28 32  1  0  0  0
M  END
>  <CHROM.0>
-88.49990900,178.76750349,-72.28591687,-179.84830152,-76.75830379,-24.56386653
-160.25485434,-178.76190166,95.95042906,171.13769739

>  <CHROM.1>
170.56525473,176.05362078,-96.98848580,-124.07975054,-1.88455313,-73.79806340
-76.06257638,-58.16537926,85.79415563,-62.45703684,-1.90588400,58.34377376
-9.52986699,-0.12609572,0.47904680,-2.70631699

>  <FORMUL>
      DPC    C20 H27 N3 O5

>  <HET>
 DPC  A 466      28

>  <HETNAM>
     DPC 5-ACETYLAMINO-4-AMINO-6-(PHENETHYL-PROPYL-CARBAMOYL)-5,
   2 DPC 6-DIHYDRO-4H-PYRAN-2-CARBOXYLIC ACID

>  <Name>
DPC.pdb

>  <RI>
0

>  <Rbt.Current_Directory>
/home/malgorzata/Desktop/rDOCK_IFD/Wyniki/11_neuraminidase/IFD

>  <Rbt.Executable>
rbdock ($Id: //depot/dev/client3/rdock/2013.1/src/exe/rbdock.cxx#4 $)

>  <Rbt.Library>
libRbt.so (2013.1, Build901 2013/11/27)

>  <Rbt.Parameter_File>
/home/malgorzata/Desktop/rDock_2013.1_src/data/scripts/dock.prm

>  <Rbt.Receptor>
cavity.prm

>  <SCORE>
-34.849

>  <SCORE.INTER>
-11.7135

>  <SCORE.INTER.CONST>
1

>  <SCORE.INTER.POLAR>
-2.33913

>  <SCORE.INTER.REPUL>
0.349754

>  <SCORE.INTER.ROT>
9

>  <SCORE.INTER.VDW>
-19.9092

>  <SCORE.INTER.norm>
-0.418339

>  <SCORE.INTRA>
0.755378

>  <SCORE.INTRA.DIHEDRAL>
-0.217697

>  <SCORE.INTRA.DIHEDRAL.0>
7.68839

>  <SCORE.INTRA.POLAR>
0

>  <SCORE.INTRA.POLAR.0>
0

>  <SCORE.INTRA.REPUL>
0

>  <SCORE.INTRA.REPUL.0>
0

>  <SCORE.INTRA.VDW>
0.864227

>  <SCORE.INTRA.VDW.0>
-2.73227

>  <SCORE.INTRA.norm>
0.0269778

>  <SCORE.RESTR>
0

>  <SCORE.RESTR.CAVITY>
0

>  <SCORE.RESTR.norm>
0

>  <SCORE.SYSTEM>
-23.8909

>  <SCORE.SYSTEM.CONST>
0

>  <SCORE.SYSTEM.DIHEDRAL>
3.84836

>  <SCORE.SYSTEM.POLAR>
-6.26427

>  <SCORE.SYSTEM.REPUL>
0.197001

>  <SCORE.SYSTEM.VDW>
-5.50157

>  <SCORE.SYSTEM.norm>
-0.853246

>  <SCORE.heavy>
28

>  <SCORE.norm>
-1.24461

$$$$
DPC.pdb
  rDOCK(R)          3D
libRbt.so/2013.1/901 2013/11/27
 32 33  0  0  0  0  0  0  0  0999 V2000
   -0.5613   56.4290   -7.1142 C   0  0  0  0  0  0
    0.5771   56.8808   -7.1579 O   0  0  0  0  0  0
   -0.7431   55.2771   -6.7436 O   0  0  0  0  0  0
   -1.6960   57.3279   -7.3917 C   0  0  0  0  0  0
   -1.9251   58.4027   -6.6298 C   0  0  0  0  0  0
   -3.0514   59.3469   -6.9521 C   0  0  0  0  0  0
   -4.0564   58.7295   -7.9210 C   0  0  0  0  0  0
   -4.8558   59.7895   -8.5244 N   0  0  0  0  0  0
   -4.3580   60.7980   -9.2562 C   0  0  0  0  0  0
   -3.1581   60.9218   -9.4329 O   0  0  0  0  0  0
   -5.3813   61.7558   -9.8937 C   0  0  0  0  0  0
   -3.2982   57.9897   -9.0208 C   0  0  0  0  0  0
   -2.4229   57.0415   -8.4717 O   0  0  0  0  0  0
   -4.2678   57.1737   -9.8455 C   0  0  0  0  0  0
   -4.8346   56.6058   -9.3001 O   0  0  0  0  0  0
   -4.3924   57.4038  -11.1455 N   0  0  0  0  0  0
   -5.4307   56.6216  -11.8524 C   0  0  0  0  0  0
   -6.2936   57.4903  -12.7729 C   0  0  0  0  0  0
   -7.4262   56.6459  -13.3221 C   0  0  0  0  0  0
   -7.1928   55.3115  -13.7234 C   0  0  0  0  0  0
   -8.7124   57.1846  -13.4705 C   0  0  0  0  0  0
   -8.2220   54.5445  -14.2974 C   0  0  0  0  0  0
   -9.7373   56.4227  -14.0404 C   0  0  0  0  0  0
   -9.4995   55.1090  -14.4667 C   0  0  0  0  0  0
   -3.5319   58.3095  -11.9034 C   0  0  0  0  0  0
   -2.3088   57.5946  -12.5028 C   0  0  0  0  0  0
   -1.4804   56.7666  -11.5027 C   0  0  0  0  0  0
   -3.7143   59.7208   -5.7314 N   0  0  0  0  0  0
   -1.6144   54.9614   -6.6054 H   0  0  0  0  0  0
   -5.8300   59.7631   -8.3849 H   0  0  0  0  0  0
   -4.1066   58.8896   -5.2891 H   0  0  0  0  0  0
   -4.4637   60.3808   -5.9398 H   0  0  0  0  0  0
  1  2  2  0  0  0
  1  3  1  0  0  0
  1  4  1  0  0  0
  3 29  1  0  0  0
  4  5  2  0  0  0
  4 13  1  0  0  0
  5  6  1  0  0  0
  6  7  1  0  0  0
  6 28  1  0  0  0
  7  8  1  0  0  0
  7 12  1  0  0  0
  8  9  1  0  0  0
  8 30  1  0  0  0
  9 10  2  0  0  0
  9 11  1  0  0  0
 12 13  1  0  0  0
 12 14  1  0  0  0
 14 15  2  0  0  0
 14 16  1  0  0  0
 16 17  1  0  0  0
 16 25  1  0  0  0
 17 18  1  0  0  0
 18 19  1  0  0  0
 19 20  2  0  0  0
 19 21  1  0  0  0
 20 22  1  0  0  0
 21 23  2  0  0  0
 22 24  2  0  0  0
 23 24  1  0  0  0
 25 26  1  0  0  0
 26 27  1  0  0  0
 28 31  1  0  0  0
 28 32  1  0  0  0
M  END
>  <CHROM.0>
37.88663508,-63.53391303,-83.57768742,66.23671383,-76.25793624,-30.35131116
-159.14188627,117.10973134,166.79177270,-163.20320021

>  <CHROM.1>
172.31973716,-60.83294718,-61.50756610,59.90126767,-51.58599006,133.57672178
90.92324818,-173.25379824,-40.47548832,-51.96598639,-4.26638021,57.65181866
-10.06980110,-0.57086465,0.62451640,-2.58530987

>  <FORMUL>
      DPC    C20 H27 N3 O5

>  <HET>
 DPC  A 466      28

>  <HETNAM>
     DPC 5-ACETYLAMINO-4-AMINO-6-(PHENETHYL-PROPYL-CARBAMOYL)-5,
   2 DPC 6-DIHYDRO-4H-PYRAN-2-CARBOXYLIC ACID

>  <Name>
DPC.pdb

>  <RI>
0

>  <Rbt.Current_Directory>
/home/malgorzata/Desktop/rDOCK_IFD/Wyniki/11_neuraminidase/IFD

>  <Rbt.Executable>
rbdock ($Id: //depot/dev/client3/rdock/2013.1/src/exe/rbdock.cxx#4 $)

>  <Rbt.Library>
libRbt.so (2013.1, Build901 2013/11/27)

>  <Rbt.Parameter_File>
/home/malgorzata/Desktop/rDock_2013.1_src/data/scripts/dock.prm

>  <Rbt.Receptor>
cavity.prm

>  <SCORE>
-29.8159

>  <SCORE.INTER>
-14.7474

>  <SCORE.INTER.CONST>
1

>  <SCORE.INTER.POLAR>
-2.44707

>  <SCORE.INTER.REPUL>
0.0206632

>  <SCORE.INTER.ROT>
9

>  <SCORE.INTER.VDW>
-20.9307

>  <SCORE.INTER.norm>
-0.526694

>  <SCORE.INTRA>
5.67144

>  <SCORE.INTRA.DIHEDRAL>
8.9099

>  <SCORE.INTRA.DIHEDRAL.0>
7.68839

>  <SCORE.INTRA.POLAR>
0

>  <SCORE.INTRA.POLAR.0>
0

>  <SCORE.INTRA.REPUL>
0

>  <SCORE.INTRA.REPUL.0>
0

>  <SCORE.INTRA.VDW>
1.21649

>  <SCORE.INTRA.VDW.0>
-2.73227

>  <SCORE.INTRA.norm>
0.202551

>  <SCORE.RESTR>
0

>  <SCORE.RESTR.CAVITY>
0

>  <SCORE.RESTR.norm>
0

>  <SCORE.SYSTEM>
-20.7399

>  <SCORE.SYSTEM.CONST>
0

>  <SCORE.SYSTEM.DIHEDRAL>
4.29159

>  <SCORE.SYSTEM.POLAR>
-6.729

>  <SCORE.SYSTEM.REPUL>
0.00650825

>  <SCORE.SYSTEM.VDW>
-0.0396461

>  <SCORE.SYSTEM.norm>
-0.740711

>  <SCORE.heavy>
28

>  <SCORE.norm>
-1.06485

$$$$
DPC.pdb
  rDOCK(R)          3D
libRbt.so/2013.1/901 2013/11/27
 32 33  0  0  0  0  0  0  0  0999 V2000
   -2.3187   55.7951  -10.6601 C   0  0  0  0  0  0
   -2.1089   54.7591  -11.2802 O   0  0  0  0  0  0
   -1.4681   56.2259   -9.8931 O   0  0  0  0  0  0
   -3.5430   56.5632  -10.9490 C   0  0  0  0  0  0
   -4.2247   56.3710  -12.0832 C   0  0  0  0  0  0
   -5.5040   57.1179  -12.3466 C   0  0  0  0  0  0
   -5.6662   58.3200  -11.4200 C   0  0  0  0  0  0
   -7.0644   58.7343  -11.4105 N   0  0  0  0  0  0
   -7.5714   59.7260  -12.1587 C   0  0  0  0  0  0
   -6.8615   60.3974  -12.8878 O   0  0  0  0  0  0
   -9.0947   59.9368  -12.0808 C   0  0  0  0  0  0
   -5.2561   57.9173  -10.0053 C   0  0  0  0  0  0
   -3.9543   57.3961   -9.9930 O   0  0  0  0  0  0
   -5.1773   59.1476   -9.1298 C   0  0  0  0  0  0
   -5.8986   59.1911   -8.4826 O   0  0  0  0  0  0
   -4.1095   59.9324   -9.1808 N   0  0  0  0  0  0
   -4.0793   61.0598   -8.2228 C   0  0  0  0  0  0
   -4.4155   62.4000   -8.8844 C   0  0  0  0  0  0
   -5.9138   62.4766   -9.1003 C   0  0  0  0  0  0
   -6.4433   62.5752  -10.4066 C   0  0  0  0  0  0
   -6.7938   62.4837   -8.0085 C   0  0  0  0  0  0
   -7.8272   62.7159  -10.6109 C   0  0  0  0  0  0
   -8.1706   62.6226   -8.2103 C   0  0  0  0  0  0
   -8.6946   62.7509   -9.5038 C   0  0  0  0  0  0
   -3.0308   59.7859  -10.1555 C   0  0  0  0  0  0
   -2.9239   60.9951  -11.1003 C   0  0  0  0  0  0
   -4.0383   61.0986  -12.1583 C   0  0  0  0  0  0
   -5.5207   57.5513  -13.7182 N   0  0  0  0  0  0
   -1.6277   57.0133   -9.4109 H   0  0  0  0  0  0
   -7.6801   58.2520  -10.8125 H   0  0  0  0  0  0
   -5.5338   56.7367  -14.3320 H   0  0  0  0  0  0
   -4.6872   58.1075  -13.9092 H   0  0  0  0  0  0
  1  2  2  0  0  0
  1  3  1  0  0  0
  1  4  1  0  0  0
  3 29  1  0  0  0
  4  5  2  0  0  0
  4 13  1  0  0  0
  5  6  1  0  0  0
  6  7  1  0  0  0
  6 28  1  0  0  0
  7  8  1  0  0  0
  7 12  1  0  0  0
  8  9  1  0  0  0
  8 30  1  0  0  0
  9 10  2  0  0  0
  9 11  1  0  0  0
 12 13  1  0  0  0
 12 14  1  0  0  0
 14 15  2  0  0  0
 14 16  1  0  0  0
 16 17  1  0  0  0
 16 25  1  0  0  0
 17 18  1  0  0  0
 18 19  1  0  0  0
 19 20  2  0  0  0
 19 21  1  0  0  0
 20 22  1  0  0  0
 21 23  2  0  0  0
 22 24  2  0  0  0
 23 24  1  0  0  0
 25 26  1  0  0  0
 26 27  1  0  0  0
 28 31  1  0  0  0
 28 32  1  0  0  0
M  END
>  <CHROM.0>
44.48676239,-68.19616529,-74.07987477,-174.62115642,58.05194157,-12.98948744
-156.87483034,120.72764273,96.28605143,178.98077344

>  <CHROM.1>
-179.42131603,-18.31333034,64.12874234,-97.12555188,108.61924740,-103.13970267
115.58448007,76.95798204,-117.68481060,-72.97819352,-5.22661621,59.43890549
-10.53418490,-0.83989131,-0.55025612,0.67388182

>  <FORMUL>
      DPC    C20 H27 N3 O5

>  <HET>
 DPC  A 466      28

>  <HETNAM>
     DPC 5-ACETYLAMINO-4-AMINO-6-(PHENETHYL-PROPYL-CARBAMOYL)-5,
   2 DPC 6-DIHYDRO-4H-PYRAN-2-CARBOXYLIC ACID

>  <Name>
DPC.pdb

>  <RI>
0

>  <Rbt.Current_Directory>
/home/malgorzata/Desktop/rDOCK_IFD/Wyniki/11_neuraminidase/IFD

>  <Rbt.Executable>
rbdock ($Id: //depot/dev/client3/rdock/2013.1/src/exe/rbdock.cxx#4 $)

>  <Rbt.Library>
libRbt.so (2013.1, Build901 2013/11/27)

>  <Rbt.Parameter_File>
/home/malgorzata/Desktop/rDock_2013.1_src/data/scripts/dock.prm

>  <Rbt.Receptor>
cavity.prm

>  <SCORE>
-26.8605

>  <SCORE.INTER>
-8.29627

>  <SCORE.INTER.CONST>
1

>  <SCORE.INTER.POLAR>
-2.07195

>  <SCORE.INTER.REPUL>
0.0213565

>  <SCORE.INTER.ROT>
9

>  <SCORE.INTER.VDW>
-15.7584

>  <SCORE.INTER.norm>
-0.296295

>  <SCORE.INTRA>
-0.0954941

>  <SCORE.INTRA.DIHEDRAL>
1.09335

>  <SCORE.INTRA.DIHEDRAL.0>
7.68839

>  <SCORE.INTRA.POLAR>
0

>  <SCORE.INTRA.POLAR.0>
0

>  <SCORE.INTRA.REPUL>
0

>  <SCORE.INTRA.REPUL.0>
0

>  <SCORE.INTRA.VDW>
-0.642169

>  <SCORE.INTRA.VDW.0>
-2.73227

>  <SCORE.INTRA.norm>
-0.0034105

>  <SCORE.RESTR>
0

>  <SCORE.RESTR.CAVITY>
0

>  <SCORE.RESTR.norm>
0

>  <SCORE.SYSTEM>
-18.4687

>  <SCORE.SYSTEM.CONST>
0

>  <SCORE.SYSTEM.DIHEDRAL>
2.93108

>  <SCORE.SYSTEM.POLAR>
-5.25819

>  <SCORE.SYSTEM.REPUL>
0.214653

>  <SCORE.SYSTEM.VDW>
-3.12969

>  <SCORE.SYSTEM.norm>
-0.659598

>  <SCORE.heavy>
28

>  <SCORE.norm>
-0.959304

$$$$
