DPC.pdb
  rDOCK(R)          3D
libRbt.so/2013.1/901 2013/11/27
 32 33  0  0  0  0  0  0  0  0999 V2000
    1.5767   54.8654   -7.5860 C   0  0  0  0  0  0
    0.9879   54.3722   -8.5410 O   0  0  0  0  0  0
    2.7069   54.4871   -7.3088 O   0  0  0  0  0  0
    0.9537   55.9929   -6.8696 C   0  0  0  0  0  0
    1.4276   56.4044   -5.6888 C   0  0  0  0  0  0
    0.8223   57.5912   -4.9895 C   0  0  0  0  0  0
   -0.5468   57.9540   -5.5587 C   0  0  0  0  0  0
   -0.8833   59.3182   -5.1685 N   0  0  0  0  0  0
   -0.1624   60.4035   -5.4894 C   0  0  0  0  0  0
    0.8813   60.3104   -6.1126 O   0  0  0  0  0  0
   -0.7456   61.7655   -5.0704 C   0  0  0  0  0  0
   -0.4907   57.8710   -7.0823 C   0  0  0  0  0  0
   -0.0502   56.6057   -7.4968 O   0  0  0  0  0  0
   -1.8877   57.9874   -7.6491 C   0  0  0  0  0  0
   -2.5160   58.3686   -7.0158 O   0  0  0  0  0  0
   -2.1056   57.7465   -8.9348 N   0  0  0  0  0  0
   -3.4850   57.9753   -9.4191 C   0  0  0  0  0  0
   -3.7065   59.4131   -9.8992 C   0  0  0  0  0  0
   -3.4418   59.4771  -11.3903 C   0  0  0  0  0  0
   -4.1309   58.6184  -12.2758 C   0  0  0  0  0  0
   -2.4879   60.3644  -11.9094 C   0  0  0  0  0  0
   -3.8410   58.6242  -13.6516 C   0  0  0  0  0  0
   -2.1992   60.3719  -13.2777 C   0  0  0  0  0  0
   -2.8603   59.4995  -14.1529 C   0  0  0  0  0  0
   -1.0997   57.2126   -9.8503 C   0  0  0  0  0  0
   -1.2526   55.6983  -10.0737 C   0  0  0  0  0  0
   -0.1869   55.0609  -10.9848 C   0  0  0  0  0  0
    0.7073   57.3003   -3.5854 N   0  0  0  0  0  0
    3.1851   54.9051   -6.6199 H   0  0  0  0  0  0
   -1.6974   59.4525   -4.6314 H   0  0  0  0  0  0
    0.4029   56.3346   -3.4620 H   0  0  0  0  0  0
    0.0241   57.9288   -3.1627 H   0  0  0  0  0  0
  1  2  2  0  0  0
  1  3  1  0  0  0
  1  4  1  0  0  0
  3 29  1  0  0  0
  4  5  2  0  0  0
  4 13  1  0  0  0
  5  6  1  0  0  0
  6  7  1  0  0  0
  6 28  1  0  0  0
  7  8  1  0  0  0
  7 12  1  0  0  0
  8  9  1  0  0  0
  8 30  1  0  0  0
  9 10  2  0  0  0
  9 11  1  0  0  0
 12 13  1  0  0  0
 12 14  1  0  0  0
 14 15  2  0  0  0
 14 16  1  0  0  0
 16 17  1  0  0  0
 16 25  1  0  0  0
 17 18  1  0  0  0
 18 19  1  0  0  0
 19 20  2  0  0  0
 19 21  1  0  0  0
 20 22  1  0  0  0
 21 23  2  0  0  0
 22 24  2  0  0  0
 23 24  1  0  0  0
 25 26  1  0  0  0
 26 27  1  0  0  0
 28 31  1  0  0  0
 28 32  1  0  0  0
M  END
>  <CHROM.0>
-173.61793386,-62.82819067,174.25714512,-72.37719213,104.72458534,72.99904313
-107.30198636,-88.68751251,165.15738142,11.73811203,-111.59703296,105.19478874

>  <CHROM.1>
175.46508522,167.72083863,-40.34846394,60.03643120,18.34915704,89.15963491
99.14675409,92.77320675,55.14554671,-177.60949499,-0.94385497,57.87230509
-8.37775879,-0.57834519,0.94646733,-2.21318679

>  <FORMUL>
      DPC    C20 H27 N3 O5

>  <HET>
 DPC  A 466      28

>  <HETNAM>
     DPC 5-ACETYLAMINO-4-AMINO-6-(PHENETHYL-PROPYL-CARBAMOYL)-5,
   2 DPC 6-DIHYDRO-4H-PYRAN-2-CARBOXYLIC ACID

>  <Name>
DPC.pdb

>  <RI>
0

>  <Rbt.Current_Directory>
/home/malgorzata/Desktop/rDOCK_IFD/Wyniki/11_neuraminidase/IFD

>  <Rbt.Executable>
rbdock ($Id: //depot/dev/client3/rdock/2013.1/src/exe/rbdock.cxx#4 $)

>  <Rbt.Library>
libRbt.so (2013.1, Build901 2013/11/27)

>  <Rbt.Parameter_File>
/home/malgorzata/Desktop/rDock_2013.1_src/data/scripts/dock.prm

>  <Rbt.Receptor>
cavity.prm

>  <SCORE>
-42.4022

>  <SCORE.INTER>
-16.9336

>  <SCORE.INTER.CONST>
1

>  <SCORE.INTER.POLAR>
-2.66665

>  <SCORE.INTER.REPUL>
0.161334

>  <SCORE.INTER.ROT>
9

>  <SCORE.INTER.VDW>
-23.0736

>  <SCORE.INTER.norm>
-0.604771

>  <SCORE.INTRA>
5.51015

>  <SCORE.INTRA.DIHEDRAL>
2.50385

>  <SCORE.INTRA.DIHEDRAL.0>
7.68839

>  <SCORE.INTRA.POLAR>
0

>  <SCORE.INTRA.POLAR.0>
0

>  <SCORE.INTRA.REPUL>
0

>  <SCORE.INTRA.REPUL.0>
0

>  <SCORE.INTRA.VDW>
4.25823

>  <SCORE.INTRA.VDW.0>
-2.73227

>  <SCORE.INTRA.norm>
0.196791

>  <SCORE.RESTR>
0

>  <SCORE.RESTR.CAVITY>
0

>  <SCORE.RESTR.norm>
0

>  <SCORE.SYSTEM>
-30.9787

>  <SCORE.SYSTEM.CONST>
0

>  <SCORE.SYSTEM.DIHEDRAL>
4.53801

>  <SCORE.SYSTEM.POLAR>
-8.69311

>  <SCORE.SYSTEM.VDW>
-3.69118

>  <SCORE.SYSTEM.norm>
-1.10638

>  <SCORE.heavy>
28

>  <SCORE.norm>
-1.51436

$$$$
DPC.pdb
  rDOCK(R)          3D
libRbt.so/2013.1/901 2013/11/27
 32 33  0  0  0  0  0  0  0  0999 V2000
   -0.1708   57.7556   -5.7916 C   0  0  0  0  0  0
   -0.4637   57.0904   -6.7784 O   0  0  0  0  0  0
    0.9592   57.6866   -5.3271 O   0  0  0  0  0  0
   -1.1541   58.7180   -5.2633 C   0  0  0  0  0  0
   -1.0035   59.2603   -4.0503 C   0  0  0  0  0  0
   -1.9808   60.2842   -3.5399 C   0  0  0  0  0  0
   -3.2749   60.2938   -4.3493 C   0  0  0  0  0  0
   -3.9818   61.5467   -4.1105 N   0  0  0  0  0  0
   -4.6904   61.8243   -3.0053 C   0  0  0  0  0  0
   -4.8301   61.0004   -2.1176 O   0  0  0  0  0  0
   -5.2736   63.2455   -2.9008 C   0  0  0  0  0  0
   -2.9344   60.1890   -5.8341 C   0  0  0  0  0  0
   -2.1466   59.0565   -6.0862 O   0  0  0  0  0  0
   -4.1984   59.9529   -6.6296 C   0  0  0  0  0  0
   -4.7909   59.3121   -6.2059 O   0  0  0  0  0  0
   -4.4740   60.7127   -7.6808 N   0  0  0  0  0  0
   -5.7758   60.4698   -8.3411 C   0  0  0  0  0  0
   -5.7226   59.2999   -9.3287 C   0  0  0  0  0  0
   -4.8236   59.6794  -10.4886 C   0  0  0  0  0  0
   -5.1517   60.7751  -11.3180 C   0  0  0  0  0  0
   -3.6728   58.9311  -10.7754 C   0  0  0  0  0  0
   -4.3599   61.0907  -12.4362 C   0  0  0  0  0  0
   -2.8838   59.2443  -11.8867 C   0  0  0  0  0  0
   -3.2248   60.3123  -12.7277 C   0  0  0  0  0  0
   -3.5522   61.6960   -8.2453 C   0  0  0  0  0  0
   -3.5291   63.0085   -7.4433 C   0  0  0  0  0  0
   -2.4714   64.0325   -7.8956 C   0  0  0  0  0  0
   -2.2698   60.0091   -2.1578 N   0  0  0  0  0  0
    1.2039   58.2340   -4.6071 H   0  0  0  0  0  0
   -3.9359   62.2381   -4.8098 H   0  0  0  0  0  0
   -1.4617   60.2550   -1.5859 H   0  0  0  0  0  0
   -2.4770   59.0167   -2.0447 H   0  0  0  0  0  0
  1  2  2  0  0  0
  1  3  1  0  0  0
  1  4  1  0  0  0
  3 29  1  0  0  0
  4  5  2  0  0  0
  4 13  1  0  0  0
  5  6  1  0  0  0
  6  7  1  0  0  0
  6 28  1  0  0  0
  7  8  1  0  0  0
  7 12  1  0  0  0
  8  9  1  0  0  0
  8 30  1  0  0  0
  9 10  2  0  0  0
  9 11  1  0  0  0
 12 13  1  0  0  0
 12 14  1  0  0  0
 14 15  2  0  0  0
 14 16  1  0  0  0
 16 17  1  0  0  0
 16 25  1  0  0  0
 17 18  1  0  0  0
 18 19  1  0  0  0
 19 20  2  0  0  0
 19 21  1  0  0  0
 20 22  1  0  0  0
 21 23  2  0  0  0
 22 24  2  0  0  0
 23 24  1  0  0  0
 25 26  1  0  0  0
 26 27  1  0  0  0
 28 31  1  0  0  0
 28 32  1  0  0  0
M  END
>  <CHROM.0>
-177.69852440,-62.02474073,-47.20909211,152.61003882,71.29067349,70.97728786
-91.41141998,-80.17456307,165.88750138,179.81177934,96.92210251,128.20260304

>  <CHROM.1>
176.06841792,166.10690413,72.42694127,-76.96864527,-42.18310138,-82.86013403
-79.31982449,-66.77300070,-61.86868934,173.84546243,-3.25030227,60.23143976
-6.77583433,-1.32013970,0.73963666,-1.74602372

>  <FORMUL>
      DPC    C20 H27 N3 O5

>  <HET>
 DPC  A 466      28

>  <HETNAM>
     DPC 5-ACETYLAMINO-4-AMINO-6-(PHENETHYL-PROPYL-CARBAMOYL)-5,
   2 DPC 6-DIHYDRO-4H-PYRAN-2-CARBOXYLIC ACID

>  <Name>
DPC.pdb

>  <RI>
0

>  <Rbt.Current_Directory>
/home/malgorzata/Desktop/rDOCK_IFD/Wyniki/11_neuraminidase/IFD

>  <Rbt.Executable>
rbdock ($Id: //depot/dev/client3/rdock/2013.1/src/exe/rbdock.cxx#4 $)

>  <Rbt.Library>
libRbt.so (2013.1, Build901 2013/11/27)

>  <Rbt.Parameter_File>
/home/malgorzata/Desktop/rDock_2013.1_src/data/scripts/dock.prm

>  <Rbt.Receptor>
cavity.prm

>  <SCORE>
-40.0527

>  <SCORE.INTER>
-7.18016

>  <SCORE.INTER.CONST>
1

>  <SCORE.INTER.POLAR>
-0.427199

>  <SCORE.INTER.REPUL>
0.00423863

>  <SCORE.INTER.ROT>
9

>  <SCORE.INTER.VDW>
-20.1489

>  <SCORE.INTER.norm>
-0.256434

>  <SCORE.INTRA>
0.350917

>  <SCORE.INTRA.DIHEDRAL>
0.606367

>  <SCORE.INTRA.DIHEDRAL.0>
7.68839

>  <SCORE.INTRA.POLAR>
0

>  <SCORE.INTRA.POLAR.0>
0

>  <SCORE.INTRA.REPUL>
0

>  <SCORE.INTRA.REPUL.0>
0

>  <SCORE.INTRA.VDW>
0.0477334

>  <SCORE.INTRA.VDW.0>
-2.73227

>  <SCORE.INTRA.norm>
0.0125328

>  <SCORE.RESTR>
0

>  <SCORE.RESTR.CAVITY>
0

>  <SCORE.RESTR.norm>
0

>  <SCORE.SYSTEM>
-33.2234

>  <SCORE.SYSTEM.CONST>
0

>  <SCORE.SYSTEM.DIHEDRAL>
6.91293

>  <SCORE.SYSTEM.POLAR>
-9.49601

>  <SCORE.SYSTEM.VDW>
-4.39347

>  <SCORE.SYSTEM.norm>
-1.18655

>  <SCORE.heavy>
28

>  <SCORE.norm>
-1.43045

$$$$
DPC.pdb
  rDOCK(R)          3D
libRbt.so/2013.1/901 2013/11/27
 32 33  0  0  0  0  0  0  0  0999 V2000
   -5.5375   58.7996   -5.3602 C   0  0  0  0  0  0
   -5.0361   59.2691   -4.3452 O   0  0  0  0  0  0
   -6.1083   57.7184   -5.3106 O   0  0  0  0  0  0
   -5.5476   59.6106   -6.5909 C   0  0  0  0  0  0
   -5.6592   60.9421   -6.5371 C   0  0  0  0  0  0
   -5.6124   61.7682   -7.7937 C   0  0  0  0  0  0
   -5.8298   60.9207   -9.0445 C   0  0  0  0  0  0
   -5.3555   61.6556  -10.2114 N   0  0  0  0  0  0
   -4.1468   62.2296  -10.3121 C   0  0  0  0  0  0
   -3.3561   62.2106   -9.3844 O   0  0  0  0  0  0
   -3.7993   62.8678  -11.6696 C   0  0  0  0  0  0
   -5.0321   59.6254   -8.9132 C   0  0  0  0  0  0
   -5.3730   58.9473   -7.7339 O   0  0  0  0  0  0
   -5.4234   58.6735  -10.0210 C   0  0  0  0  0  0
   -6.3469   58.3841   -9.9546 O   0  0  0  0  0  0
   -4.5951   58.4555  -11.0334 N   0  0  0  0  0  0
   -5.1000   57.5822  -12.1161 C   0  0  0  0  0  0
   -6.4216   58.0846  -12.7058 C   0  0  0  0  0  0
   -6.8282   57.1701  -13.8442 C   0  0  0  0  0  0
   -6.5097   57.5061  -15.1791 C   0  0  0  0  0  0
   -7.5532   55.9962  -13.5938 C   0  0  0  0  0  0
   -6.9431   56.6982  -16.2451 C   0  0  0  0  0  0
   -7.9842   55.1912  -14.6530 C   0  0  0  0  0  0
   -7.6949   55.5391  -15.9794 C   0  0  0  0  0  0
   -3.2249   58.9596  -11.0943 C   0  0  0  0  0  0
   -2.9216   59.6793  -12.4195 C   0  0  0  0  0  0
   -1.5144   60.2969  -12.5209 C   0  0  0  0  0  0
   -6.6167   62.7955   -7.7177 N   0  0  0  0  0  0
   -6.1831   57.2651   -4.4939 H   0  0  0  0  0  0
   -5.9655   61.7362  -10.9799 H   0  0  0  0  0  0
   -6.5411   63.4058   -8.5315 H   0  0  0  0  0  0
   -6.4793   63.3431   -6.8681 H   0  0  0  0  0  0
  1  2  2  0  0  0
  1  3  1  0  0  0
  1  4  1  0  0  0
  3 29  1  0  0  0
  4  5  2  0  0  0
  4 13  1  0  0  0
  5  6  1  0  0  0
  6  7  1  0  0  0
  6 28  1  0  0  0
  7  8  1  0  0  0
  7 12  1  0  0  0
  8  9  1  0  0  0
  8 30  1  0  0  0
  9 10  2  0  0  0
  9 11  1  0  0  0
 12 13  1  0  0  0
 12 14  1  0  0  0
 14 15  2  0  0  0
 14 16  1  0  0  0
 16 17  1  0  0  0
 16 25  1  0  0  0
 17 18  1  0  0  0
 18 19  1  0  0  0
 19 20  2  0  0  0
 19 21  1  0  0  0
 20 22  1  0  0  0
 21 23  2  0  0  0
 22 24  2  0  0  0
 23 24  1  0  0  0
 25 26  1  0  0  0
 26 27  1  0  0  0
 28 31  1  0  0  0
 28 32  1  0  0  0
M  END
>  <CHROM.0>
-173.70351843,-177.55572525,-171.35524532,162.29262152,46.95936869,-60.70883068
103.64349609,-86.56801611,169.77352605,-176.99179733,-114.79402070,117.16361858

>  <CHROM.1>
1.84404517,-32.97185208,175.45367188,50.72004497,-65.01652992,55.60142737
-129.78446239,177.40790480,-95.91160199,177.09220033,-5.39350718,59.25686764
-10.33611407,1.29260896,0.97552103,1.36632440

>  <FORMUL>
      DPC    C20 H27 N3 O5

>  <HET>
 DPC  A 466      28

>  <HETNAM>
     DPC 5-ACETYLAMINO-4-AMINO-6-(PHENETHYL-PROPYL-CARBAMOYL)-5,
   2 DPC 6-DIHYDRO-4H-PYRAN-2-CARBOXYLIC ACID

>  <Name>
DPC.pdb

>  <RI>
0

>  <Rbt.Current_Directory>
/home/malgorzata/Desktop/rDOCK_IFD/Wyniki/11_neuraminidase/IFD

>  <Rbt.Executable>
rbdock ($Id: //depot/dev/client3/rdock/2013.1/src/exe/rbdock.cxx#4 $)

>  <Rbt.Library>
libRbt.so (2013.1, Build901 2013/11/27)

>  <Rbt.Parameter_File>
/home/malgorzata/Desktop/rDock_2013.1_src/data/scripts/dock.prm

>  <Rbt.Receptor>
cavity.prm

>  <SCORE>
-45.3152

>  <SCORE.INTER>
-11.8603

>  <SCORE.INTER.CONST>
1

>  <SCORE.INTER.POLAR>
-2.01467

>  <SCORE.INTER.REPUL>
0.369839

>  <SCORE.INTER.ROT>
9

>  <SCORE.INTER.VDW>
-21.2596

>  <SCORE.INTER.norm>
-0.423583

>  <SCORE.INTRA>
2.71358

>  <SCORE.INTRA.DIHEDRAL>
3.42261

>  <SCORE.INTRA.DIHEDRAL.0>
7.68839

>  <SCORE.INTRA.POLAR>
0

>  <SCORE.INTRA.POLAR.0>
0

>  <SCORE.INTRA.REPUL>
0

>  <SCORE.INTRA.REPUL.0>
0

>  <SCORE.INTRA.VDW>
1.00228

>  <SCORE.INTRA.VDW.0>
-2.73227

>  <SCORE.INTRA.norm>
0.0969137

>  <SCORE.RESTR>
0

>  <SCORE.RESTR.CAVITY>
0

>  <SCORE.RESTR.norm>
0

>  <SCORE.SYSTEM>
-36.1685

>  <SCORE.SYSTEM.CONST>
0

>  <SCORE.SYSTEM.DIHEDRAL>
4.44594

>  <SCORE.SYSTEM.POLAR>
-9.96325

>  <SCORE.SYSTEM.REPUL>
0.35339

>  <SCORE.SYSTEM.VDW>
-6.28336

>  <SCORE.SYSTEM.norm>
-1.29173

>  <SCORE.heavy>
28

>  <SCORE.norm>
-1.6184

$$$$
DPC.pdb
  rDOCK(R)          3D
libRbt.so/2013.1/901 2013/11/27
 32 33  0  0  0  0  0  0  0  0999 V2000
   -0.3113   56.7240   -7.2647 C   0  0  0  0  0  0
   -0.4823   55.8309   -8.0862 O   0  0  0  0  0  0
    0.7613   56.8160   -6.6830 O   0  0  0  0  0  0
   -1.3627   57.7420   -7.0893 C   0  0  0  0  0  0
   -1.3529   58.5677   -6.0375 C   0  0  0  0  0  0
   -2.3974   59.6412   -5.8939 C   0  0  0  0  0  0
   -3.5971   59.3983   -6.8059 C   0  0  0  0  0  0
   -4.3478   60.6398   -6.9533 N   0  0  0  0  0  0
   -5.6842   60.7168   -7.0473 C   0  0  0  0  0  0
   -6.3781   59.7145   -7.0602 O   0  0  0  0  0  0
   -6.2904   62.1314   -7.0906 C   0  0  0  0  0  0
   -3.0974   58.9522   -8.1780 C   0  0  0  0  0  0
   -2.2670   57.8277   -8.0649 O   0  0  0  0  0  0
   -4.2643   58.4758   -9.0132 C   0  0  0  0  0  0
   -4.8078   57.8173   -8.5526 O   0  0  0  0  0  0
   -4.5488   59.0755  -10.1613 N   0  0  0  0  0  0
   -5.7622   58.6026  -10.8639 C   0  0  0  0  0  0
   -5.5242   57.2981  -11.6310 C   0  0  0  0  0  0
   -6.0760   57.4485  -13.0348 C   0  0  0  0  0  0
   -7.3968   57.0433  -13.3304 C   0  0  0  0  0  0
   -5.2757   57.9605  -14.0662 C   0  0  0  0  0  0
   -7.8923   57.1158  -14.6442 C   0  0  0  0  0  0
   -5.7675   58.0340  -15.3733 C   0  0  0  0  0  0
   -7.0672   57.6042  -15.6737 C   0  0  0  0  0  0
   -3.7084   60.0969  -10.7824 C   0  0  0  0  0  0
   -4.0709   61.5182  -10.3188 C   0  0  0  0  0  0
   -3.2899   62.6507  -11.0112 C   0  0  0  0  0  0
   -2.8281   59.6964   -4.5224 N   0  0  0  0  0  0
    1.4289   56.1745   -6.8272 H   0  0  0  0  0  0
   -3.8379   61.4813   -6.9862 H   0  0  0  0  0  0
   -3.6221   60.3315   -4.4407 H   0  0  0  0  0  0
   -2.0622   60.0327   -3.9387 H   0  0  0  0  0  0
  1  2  2  0  0  0
  1  3  1  0  0  0
  1  4  1  0  0  0
  3 29  1  0  0  0
  4  5  2  0  0  0
  4 13  1  0  0  0
  5  6  1  0  0  0
  6  7  1  0  0  0
  6 28  1  0  0  0
  7  8  1  0  0  0
  7 12  1  0  0  0
  8  9  1  0  0  0
  8 30  1  0  0  0
  9 10  2  0  0  0
  9 11  1  0  0  0
 12 13  1  0  0  0
 12 14  1  0  0  0
 14 15  2  0  0  0
 14 16  1  0  0  0
 16 17  1  0  0  0
 16 25  1  0  0  0
 17 18  1  0  0  0
 18 19  1  0  0  0
 19 20  2  0  0  0
 19 21  1  0  0  0
 20 22  1  0  0  0
 21 23  2  0  0  0
 22 24  2  0  0  0
 23 24  1  0  0  0
 25 26  1  0  0  0
 26 27  1  0  0  0
 28 31  1  0  0  0
 28 32  1  0  0  0
M  END
>  <CHROM.0>
178.93728590,-64.95644273,-174.83235009,168.65544213,-38.77227602,70.60551321
-89.90935204,-77.04290837,156.15510254,178.66045898,-111.54316953,-129.89808651

>  <CHROM.1>
-3.74588311,166.40110958,-172.43578212,-143.96617136,-51.56075571,-79.27602420
-89.49054059,-131.81979109,-92.85166036,-175.83739301,-4.05186888,58.77761120
-9.36710083,-0.85029957,0.68431854,-2.17037834

>  <FORMUL>
      DPC    C20 H27 N3 O5

>  <HET>
 DPC  A 466      28

>  <HETNAM>
     DPC 5-ACETYLAMINO-4-AMINO-6-(PHENETHYL-PROPYL-CARBAMOYL)-5,
   2 DPC 6-DIHYDRO-4H-PYRAN-2-CARBOXYLIC ACID

>  <Name>
DPC.pdb

>  <RI>
0

>  <Rbt.Current_Directory>
/home/malgorzata/Desktop/rDOCK_IFD/Wyniki/11_neuraminidase/IFD

>  <Rbt.Executable>
rbdock ($Id: //depot/dev/client3/rdock/2013.1/src/exe/rbdock.cxx#4 $)

>  <Rbt.Library>
libRbt.so (2013.1, Build901 2013/11/27)

>  <Rbt.Parameter_File>
/home/malgorzata/Desktop/rDock_2013.1_src/data/scripts/dock.prm

>  <Rbt.Receptor>
cavity.prm

>  <SCORE>
-48.0355

>  <SCORE.INTER>
-12.7064

>  <SCORE.INTER.CONST>
1

>  <SCORE.INTER.POLAR>
-1.24928

>  <SCORE.INTER.REPUL>
0.00457785

>  <SCORE.INTER.ROT>
9

>  <SCORE.INTER.VDW>
-22.8817

>  <SCORE.INTER.norm>
-0.453799

>  <SCORE.INTRA>
1.32933

>  <SCORE.INTRA.DIHEDRAL>
5.38348

>  <SCORE.INTRA.DIHEDRAL.0>
7.68839

>  <SCORE.INTRA.POLAR>
0

>  <SCORE.INTRA.POLAR.0>
0

>  <SCORE.INTRA.REPUL>
0

>  <SCORE.INTRA.REPUL.0>
0

>  <SCORE.INTRA.VDW>
-1.36241

>  <SCORE.INTRA.VDW.0>
-2.73227

>  <SCORE.INTRA.norm>
0.0474761

>  <SCORE.RESTR>
0

>  <SCORE.RESTR.CAVITY>
0

>  <SCORE.RESTR.norm>
0

>  <SCORE.SYSTEM>
-36.6584

>  <SCORE.SYSTEM.CONST>
0

>  <SCORE.SYSTEM.DIHEDRAL>
3.82471

>  <SCORE.SYSTEM.POLAR>
-9.94483

>  <SCORE.SYSTEM.REPUL>
0.233348

>  <SCORE.SYSTEM.VDW>
-5.92508

>  <SCORE.SYSTEM.norm>
-1.30923

>  <SCORE.heavy>
28

>  <SCORE.norm>
-1.71555

$$$$
DPC.pdb
  rDOCK(R)          3D
libRbt.so/2013.1/901 2013/11/27
 32 33  0  0  0  0  0  0  0  0999 V2000
    1.5993   54.9219   -7.7281 C   0  0  0  0  0  0
    1.1646   54.5137   -8.7988 O   0  0  0  0  0  0
    2.6440   54.4652   -7.2837 O   0  0  0  0  0  0
    0.9145   56.0444   -7.0622 C   0  0  0  0  0  0
    1.2235   56.3933   -5.8088 C   0  0  0  0  0  0
    0.5606   57.5751   -5.1548 C   0  0  0  0  0  0
   -0.6983   58.0103   -5.9002 C   0  0  0  0  0  0
   -1.0446   59.3707   -5.5052 N   0  0  0  0  0  0
   -0.2165   60.4233   -5.5874 C   0  0  0  0  0  0
    0.9342   60.2969   -5.9698 O   0  0  0  0  0  0
   -0.8095   61.7957   -5.2190 C   0  0  0  0  0  0
   -0.4226   57.9823   -7.4018 C   0  0  0  0  0  0
    0.0332   56.7177   -7.8015 O   0  0  0  0  0  0
   -1.7173   58.1724   -8.1595 C   0  0  0  0  0  0
   -2.2803   57.3827   -8.1389 O   0  0  0  0  0  0
   -2.0512   59.3725   -8.6144 N   0  0  0  0  0  0
   -3.3774   59.4817   -9.2616 C   0  0  0  0  0  0
   -4.5200   59.0643   -8.3305 C   0  0  0  0  0  0
   -4.7899   60.1903   -7.3523 C   0  0  0  0  0  0
   -5.7082   61.2138   -7.6768 C   0  0  0  0  0  0
   -4.1102   60.2511   -6.1272 C   0  0  0  0  0  0
   -5.9124   62.2974   -6.8045 C   0  0  0  0  0  0
   -4.3129   61.3278   -5.2582 C   0  0  0  0  0  0
   -5.2010   62.3592   -5.5923 C   0  0  0  0  0  0
   -1.1706   60.5379   -8.5747 C   0  0  0  0  0  0
    0.0804   60.3597   -9.4519 C   0  0  0  0  0  0
    1.0647   61.5441   -9.4352 C   0  0  0  0  0  0
    0.2323   57.2364   -3.7957 N   0  0  0  0  0  0
    3.0056   54.8090   -6.4906 H   0  0  0  0  0  0
   -1.9505   59.5280   -5.1533 H   0  0  0  0  0  0
   -0.4045   56.4396   -3.7882 H   0  0  0  0  0  0
   -0.2160   58.0342   -3.3452 H   0  0  0  0  0  0
  1  2  2  0  0  0
  1  3  1  0  0  0
  1  4  1  0  0  0
  3 29  1  0  0  0
  4  5  2  0  0  0
  4 13  1  0  0  0
  5  6  1  0  0  0
  6  7  1  0  0  0
  6 28  1  0  0  0
  7  8  1  0  0  0
  7 12  1  0  0  0
  8  9  1  0  0  0
  8 30  1  0  0  0
  9 10  2  0  0  0
  9 11  1  0  0  0
 12 13  1  0  0  0
 12 14  1  0  0  0
 14 15  2  0  0  0
 14 16  1  0  0  0
 16 17  1  0  0  0
 16 25  1  0  0  0
 17 18  1  0  0  0
 18 19  1  0  0  0
 19 20  2  0  0  0
 19 21  1  0  0  0
 20 22  1  0  0  0
 21 23  2  0  0  0
 22 24  2  0  0  0
 23 24  1  0  0  0
 25 26  1  0  0  0
 26 27  1  0  0  0
 28 31  1  0  0  0
 28 32  1  0  0  0
M  END
>  <CHROM.0>
-176.96086104,67.02015402,-168.29766950,164.46810444,-30.38500854,-58.29554363
-94.85879484,-76.62316455,154.56730373,179.59255954,104.16198244,141.28905427

>  <CHROM.1>
176.47867580,169.90451159,-60.11787628,55.23537523,-74.00188681,58.20726391
64.58967263,77.36661866,88.91746595,-178.95703234,-1.26474285,58.84977128
-7.07200757,0.43550691,0.63675818,-2.19254627

>  <FORMUL>
      DPC    C20 H27 N3 O5

>  <HET>
 DPC  A 466      28

>  <HETNAM>
     DPC 5-ACETYLAMINO-4-AMINO-6-(PHENETHYL-PROPYL-CARBAMOYL)-5,
   2 DPC 6-DIHYDRO-4H-PYRAN-2-CARBOXYLIC ACID

>  <Name>
DPC.pdb

>  <RI>
0

>  <Rbt.Current_Directory>
/home/malgorzata/Desktop/rDOCK_IFD/Wyniki/11_neuraminidase/IFD

>  <Rbt.Executable>
rbdock ($Id: //depot/dev/client3/rdock/2013.1/src/exe/rbdock.cxx#4 $)

>  <Rbt.Library>
libRbt.so (2013.1, Build901 2013/11/27)

>  <Rbt.Parameter_File>
/home/malgorzata/Desktop/rDock_2013.1_src/data/scripts/dock.prm

>  <Rbt.Receptor>
cavity.prm

>  <SCORE>
-52.1715

>  <SCORE.INTER>
-14.9452

>  <SCORE.INTER.CONST>
1

>  <SCORE.INTER.POLAR>
-3.17396

>  <SCORE.INTER.REPUL>
1.01745

>  <SCORE.INTER.ROT>
9

>  <SCORE.INTER.VDW>
-23.641

>  <SCORE.INTER.norm>
-0.533758

>  <SCORE.INTRA>
-0.429613

>  <SCORE.INTRA.DIHEDRAL>
0.632265

>  <SCORE.INTRA.DIHEDRAL.0>
7.68839

>  <SCORE.INTRA.POLAR>
0

>  <SCORE.INTRA.POLAR.0>
0

>  <SCORE.INTRA.REPUL>
0

>  <SCORE.INTRA.REPUL.0>
0

>  <SCORE.INTRA.VDW>
-0.745745

>  <SCORE.INTRA.VDW.0>
-2.73227

>  <SCORE.INTRA.norm>
-0.0153433

>  <SCORE.RESTR>
0.00550526

>  <SCORE.RESTR.CAVITY>
0.00550526

>  <SCORE.RESTR.norm>
0.000196616

>  <SCORE.SYSTEM>
-36.8022

>  <SCORE.SYSTEM.CONST>
0

>  <SCORE.SYSTEM.DIHEDRAL>
4.48427

>  <SCORE.SYSTEM.POLAR>
-9.94758

>  <SCORE.SYSTEM.REPUL>
0.227605

>  <SCORE.SYSTEM.VDW>
-6.36059

>  <SCORE.SYSTEM.norm>
-1.31436

>  <SCORE.heavy>
28

>  <SCORE.norm>
-1.86327

$$$$
DPC.pdb
  rDOCK(R)          3D
libRbt.so/2013.1/901 2013/11/27
 32 33  0  0  0  0  0  0  0  0999 V2000
   -0.7748   57.9380   -6.2919 C   0  0  0  0  0  0
   -0.0563   57.9251   -5.2992 O   0  0  0  0  0  0
   -0.4855   57.2467   -7.2592 O   0  0  0  0  0  0
   -2.0396   58.6935   -6.2465 C   0  0  0  0  0  0
   -2.3715   59.4163   -5.1715 C   0  0  0  0  0  0
   -3.6371   60.2299   -5.1538 C   0  0  0  0  0  0
   -4.6016   59.8123   -6.2607 C   0  0  0  0  0  0
   -5.5774   60.8749   -6.4739 N   0  0  0  0  0  0
   -5.2811   62.1042   -6.9229 C   0  0  0  0  0  0
   -4.1300   62.4373   -7.1474 O   0  0  0  0  0  0
   -6.4703   63.0476   -7.1809 C   0  0  0  0  0  0
   -3.8144   59.5926   -7.5505 C   0  0  0  0  0  0
   -2.7826   58.6636   -7.3527 O   0  0  0  0  0  0
   -4.7073   58.9484   -8.5869 C   0  0  0  0  0  0
   -5.0431   58.0835   -8.3035 O   0  0  0  0  0  0
   -5.0875   59.6349   -9.6558 N   0  0  0  0  0  0
   -6.0347   58.9555  -10.5675 C   0  0  0  0  0  0
   -5.3226   58.1158  -11.6326 C   0  0  0  0  0  0
   -4.3231   57.2040  -10.9491 C   0  0  0  0  0  0
   -4.7599   56.0378  -10.2816 C   0  0  0  0  0  0
   -2.9569   57.5199  -10.9406 C   0  0  0  0  0  0
   -3.8473   55.2243   -9.5872 C   0  0  0  0  0  0
   -2.0479   56.7113  -10.2511 C   0  0  0  0  0  0
   -2.4840   55.5707   -9.5633 C   0  0  0  0  0  0
   -4.5758   60.9584  -10.0043 C   0  0  0  0  0  0
   -3.3266   60.8889  -10.8994 C   0  0  0  0  0  0
   -2.0228   60.5076  -10.1736 C   0  0  0  0  0  0
   -4.2712   60.0835   -3.8708 N   0  0  0  0  0  0
    0.2813   56.7086   -7.2379 H   0  0  0  0  0  0
   -6.5208   60.6761   -6.2742 H   0  0  0  0  0  0
   -5.1724   60.5612   -3.8805 H   0  0  0  0  0  0
   -3.6773   60.4924   -3.1494 H   0  0  0  0  0  0
  1  2  2  0  0  0
  1  3  1  0  0  0
  1  4  1  0  0  0
  3 29  1  0  0  0
  4  5  2  0  0  0
  4 13  1  0  0  0
  5  6  1  0  0  0
  6  7  1  0  0  0
  6 28  1  0  0  0
  7  8  1  0  0  0
  7 12  1  0  0  0
  8  9  1  0  0  0
  8 30  1  0  0  0
  9 10  2  0  0  0
  9 11  1  0  0  0
 12 13  1  0  0  0
 12 14  1  0  0  0
 14 15  2  0  0  0
 14 16  1  0  0  0
 16 17  1  0  0  0
 16 25  1  0  0  0
 17 18  1  0  0  0
 18 19  1  0  0  0
 19 20  2  0  0  0
 19 21  1  0  0  0
 20 22  1  0  0  0
 21 23  2  0  0  0
 22 24  2  0  0  0
 23 24  1  0  0  0
 25 26  1  0  0  0
 26 27  1  0  0  0
 28 31  1  0  0  0
 28 32  1  0  0  0
M  END
>  <CHROM.0>
62.53167735,-61.60325723,-47.14269660,154.21698310,105.99671921,-59.29858207
-88.02000454,-90.60475257,161.72949564,-177.44409819,99.18702945,115.61029321

>  <CHROM.1>
0.19101097,3.65580665,-174.76561354,64.45696854,-60.68080147,-88.21514987
89.88326015,51.26951412,77.05767667,-76.00431527,-3.65964951,59.06135212
-8.14952845,-1.71682247,0.78501633,-2.18113076

>  <FORMUL>
      DPC    C20 H27 N3 O5

>  <HET>
 DPC  A 466      28

>  <HETNAM>
     DPC 5-ACETYLAMINO-4-AMINO-6-(PHENETHYL-PROPYL-CARBAMOYL)-5,
   2 DPC 6-DIHYDRO-4H-PYRAN-2-CARBOXYLIC ACID

>  <Name>
DPC.pdb

>  <RI>
0

>  <Rbt.Current_Directory>
/home/malgorzata/Desktop/rDOCK_IFD/Wyniki/11_neuraminidase/IFD

>  <Rbt.Executable>
rbdock ($Id: //depot/dev/client3/rdock/2013.1/src/exe/rbdock.cxx#4 $)

>  <Rbt.Library>
libRbt.so (2013.1, Build901 2013/11/27)

>  <Rbt.Parameter_File>
/home/malgorzata/Desktop/rDock_2013.1_src/data/scripts/dock.prm

>  <Rbt.Receptor>
cavity.prm

>  <SCORE>
-47.5798

>  <SCORE.INTER>
-11.3668

>  <SCORE.INTER.CONST>
1

>  <SCORE.INTER.POLAR>
-1.37728

>  <SCORE.INTER.REPUL>
0.0151046

>  <SCORE.INTER.ROT>
9

>  <SCORE.INTER.VDW>
-21.1596

>  <SCORE.INTER.norm>
-0.405959

>  <SCORE.INTRA>
-3.03233

>  <SCORE.INTRA.DIHEDRAL>
0.275973

>  <SCORE.INTRA.DIHEDRAL.0>
7.68839

>  <SCORE.INTRA.POLAR>
0

>  <SCORE.INTRA.POLAR.0>
0

>  <SCORE.INTRA.REPUL>
0

>  <SCORE.INTRA.REPUL.0>
0

>  <SCORE.INTRA.VDW>
-3.17031

>  <SCORE.INTRA.VDW.0>
-2.73227

>  <SCORE.INTRA.norm>
-0.108297

>  <SCORE.RESTR>
0

>  <SCORE.RESTR.CAVITY>
0

>  <SCORE.RESTR.norm>
0

>  <SCORE.SYSTEM>
-33.1806

>  <SCORE.SYSTEM.CONST>
0

>  <SCORE.SYSTEM.DIHEDRAL>
6.05672

>  <SCORE.SYSTEM.POLAR>
-9.46018

>  <SCORE.SYSTEM.VDW>
-4.04435

>  <SCORE.SYSTEM.norm>
-1.18502

>  <SCORE.heavy>
28

>  <SCORE.norm>
-1.69928

$$$$
DPC.pdb
  rDOCK(R)          3D
libRbt.so/2013.1/901 2013/11/27
 32 33  0  0  0  0  0  0  0  0999 V2000
    1.9859   56.3478   -4.5349 C   0  0  0  0  0  0
    2.0633   55.1278   -4.6224 O   0  0  0  0  0  0
    2.6856   56.9437   -3.7271 O   0  0  0  0  0  0
    1.1390   57.0788   -5.4945 C   0  0  0  0  0  0
    0.5541   56.4466   -6.5174 C   0  0  0  0  0  0
   -0.3541   57.1879   -7.4605 C   0  0  0  0  0  0
   -0.1862   58.7007   -7.3463 C   0  0  0  0  0  0
   -1.3483   59.3588   -7.9320 N   0  0  0  0  0  0
   -1.4976   59.6227   -9.2391 C   0  0  0  0  0  0
   -0.6204   59.3594  -10.0438 O   0  0  0  0  0  0
   -2.8462   60.2289   -9.6690 C   0  0  0  0  0  0
   -0.0891   59.0811   -5.8707 C   0  0  0  0  0  0
    0.9440   58.3727   -5.2402 O   0  0  0  0  0  0
    0.3186   60.5318   -5.7460 C   0  0  0  0  0  0
    1.1758   60.7149   -6.1617 O   0  0  0  0  0  0
   -0.5389   61.4248   -5.2710 N   0  0  0  0  0  0
   -0.0853   62.8333   -5.2721 C   0  0  0  0  0  0
   -1.2499   63.8240   -5.3676 C   0  0  0  0  0  0
   -1.9241   63.6579   -6.7150 C   0  0  0  0  0  0
   -1.1539   63.6148   -7.8988 C   0  0  0  0  0  0
   -3.3208   63.5774   -6.8102 C   0  0  0  0  0  0
   -1.7761   63.5301   -9.1567 C   0  0  0  0  0  0
   -3.9411   63.4923   -8.0607 C   0  0  0  0  0  0
   -3.1798   63.4799   -9.2373 C   0  0  0  0  0  0
   -1.8395   61.0872   -4.6967 C   0  0  0  0  0  0
   -1.7592   60.8002   -3.1876 C   0  0  0  0  0  0
   -3.0579   60.2682   -2.5533 C   0  0  0  0  0  0
   -0.0780   56.7649   -8.8075 N   0  0  0  0  0  0
    2.6516   57.8788   -3.6778 H   0  0  0  0  0  0
   -2.0750   59.6287   -7.3251 H   0  0  0  0  0  0
   -0.7121   56.0078   -9.0628 H   0  0  0  0  0  0
    0.8858   56.4370   -8.8702 H   0  0  0  0  0  0
  1  2  2  0  0  0
  1  3  1  0  0  0
  1  4  1  0  0  0
  3 29  1  0  0  0
  4  5  2  0  0  0
  4 13  1  0  0  0
  5  6  1  0  0  0
  6  7  1  0  0  0
  6 28  1  0  0  0
  7  8  1  0  0  0
  7 12  1  0  0  0
  8  9  1  0  0  0
  8 30  1  0  0  0
  9 10  2  0  0  0
  9 11  1  0  0  0
 12 13  1  0  0  0
 12 14  1  0  0  0
 14 15  2  0  0  0
 14 16  1  0  0  0
 16 17  1  0  0  0
 16 25  1  0  0  0
 17 18  1  0  0  0
 18 19  1  0  0  0
 19 20  2  0  0  0
 19 21  1  0  0  0
 20 22  1  0  0  0
 21 23  2  0  0  0
 22 24  2  0  0  0
 23 24  1  0  0  0
 25 26  1  0  0  0
 26 27  1  0  0  0
 28 31  1  0  0  0
 28 32  1  0  0  0
M  END
>  <CHROM.0>
65.51113682,65.94304022,-170.05214888,163.49153131,87.72419074,71.82039619
-80.37487702,-78.30537135,150.11197958,179.14972257,88.37546440,-125.70060450

>  <CHROM.1>
177.84918402,-5.79202518,93.70537012,-84.26289549,-59.60803402,152.58492114
88.32883442,-65.44918826,-48.12526320,-172.71791392,-0.66650559,60.04265128
-6.49327529,-0.08269977,-1.06258792,1.13512861

>  <FORMUL>
      DPC    C20 H27 N3 O5

>  <HET>
 DPC  A 466      28

>  <HETNAM>
     DPC 5-ACETYLAMINO-4-AMINO-6-(PHENETHYL-PROPYL-CARBAMOYL)-5,
   2 DPC 6-DIHYDRO-4H-PYRAN-2-CARBOXYLIC ACID

>  <Name>
DPC.pdb

>  <RI>
0

>  <Rbt.Current_Directory>
/home/malgorzata/Desktop/rDOCK_IFD/Wyniki/11_neuraminidase/IFD

>  <Rbt.Executable>
rbdock ($Id: //depot/dev/client3/rdock/2013.1/src/exe/rbdock.cxx#4 $)

>  <Rbt.Library>
libRbt.so (2013.1, Build901 2013/11/27)

>  <Rbt.Parameter_File>
/home/malgorzata/Desktop/rDock_2013.1_src/data/scripts/dock.prm

>  <Rbt.Receptor>
cavity.prm

>  <SCORE>
-44.308

>  <SCORE.INTER>
-8.81769

>  <SCORE.INTER.CONST>
1

>  <SCORE.INTER.POLAR>
-0.946448

>  <SCORE.INTER.REPUL>
0

>  <SCORE.INTER.ROT>
9

>  <SCORE.INTER.VDW>
-19.9998

>  <SCORE.INTER.norm>
-0.314917

>  <SCORE.INTRA>
1.47508

>  <SCORE.INTRA.DIHEDRAL>
1.05818

>  <SCORE.INTRA.DIHEDRAL.0>
7.68839

>  <SCORE.INTRA.POLAR>
-0.0116192

>  <SCORE.INTRA.POLAR.0>
0

>  <SCORE.INTRA.REPUL>
0

>  <SCORE.INTRA.REPUL.0>
0

>  <SCORE.INTRA.VDW>
0.985492

>  <SCORE.INTRA.VDW.0>
-2.73227

>  <SCORE.INTRA.norm>
0.0526813

>  <SCORE.RESTR>
0

>  <SCORE.RESTR.CAVITY>
0

>  <SCORE.RESTR.norm>
0

>  <SCORE.SYSTEM>
-36.9654

>  <SCORE.SYSTEM.CONST>
0

>  <SCORE.SYSTEM.DIHEDRAL>
5.13758

>  <SCORE.SYSTEM.POLAR>
-9.97752

>  <SCORE.SYSTEM.REPUL>
0.154575

>  <SCORE.SYSTEM.VDW>
-6.38351

>  <SCORE.SYSTEM.norm>
-1.32019

>  <SCORE.heavy>
28

>  <SCORE.norm>
-1.58243

$$$$
DPC.pdb
  rDOCK(R)          3D
libRbt.so/2013.1/901 2013/11/27
 32 33  0  0  0  0  0  0  0  0999 V2000
    1.9490   54.9931   -7.3205 C   0  0  0  0  0  0
    2.8599   54.4419   -6.7135 O   0  0  0  0  0  0
    1.5677   54.5351   -8.3892 O   0  0  0  0  0  0
    1.2516   56.1253   -6.6847 C   0  0  0  0  0  0
    1.3797   56.3651   -5.3754 C   0  0  0  0  0  0
    0.7101   57.5551   -4.7433 C   0  0  0  0  0  0
   -0.3761   58.1438   -5.6396 C   0  0  0  0  0  0
   -0.6790   59.5008   -5.1997 N   0  0  0  0  0  0
   -1.9124   59.9614   -4.9403 C   0  0  0  0  0  0
   -2.8980   59.2628   -5.1041 O   0  0  0  0  0  0
   -2.0090   61.3940   -4.3845 C   0  0  0  0  0  0
    0.1351   58.1888   -7.0778 C   0  0  0  0  0  0
    0.5537   56.9180   -7.4980 O   0  0  0  0  0  0
   -1.0027   58.5377   -8.0105 C   0  0  0  0  0  0
   -1.7139   57.8782   -7.9935 O   0  0  0  0  0  0
   -1.0327   59.7208   -8.6088 N   0  0  0  0  0  0
   -2.2299   60.0092   -9.4294 C   0  0  0  0  0  0
   -3.1008   61.1159   -8.8265 C   0  0  0  0  0  0
   -3.8619   61.8023   -9.9433 C   0  0  0  0  0  0
   -3.3421   62.9668  -10.5515 C   0  0  0  0  0  0
   -5.1058   61.3125  -10.3667 C   0  0  0  0  0  0
   -4.0743   63.6478  -11.5399 C   0  0  0  0  0  0
   -5.8348   61.9882  -11.3503 C   0  0  0  0  0  0
   -5.3341   63.1603  -11.9331 C   0  0  0  0  0  0
    0.0574   60.6924   -8.5582 C   0  0  0  0  0  0
    1.1762   60.3738   -9.5648 C   0  0  0  0  0  0
    2.4624   61.2041   -9.3971 C   0  0  0  0  0  0
    0.1427   57.1593   -3.4820 N   0  0  0  0  0  0
    0.8646   54.9475   -8.8514 H   0  0  0  0  0  0
    0.0750   60.1232   -5.0847 H   0  0  0  0  0  0
    0.8916   56.9144   -2.8341 H   0  0  0  0  0  0
   -0.4644   56.3515   -3.6208 H   0  0  0  0  0  0
  1  2  2  0  0  0
  1  3  1  0  0  0
  1  4  1  0  0  0
  3 29  1  0  0  0
  4  5  2  0  0  0
  4 13  1  0  0  0
  5  6  1  0  0  0
  6  7  1  0  0  0
  6 28  1  0  0  0
  7  8  1  0  0  0
  7 12  1  0  0  0
  8  9  1  0  0  0
  8 30  1  0  0  0
  9 10  2  0  0  0
  9 11  1  0  0  0
 12 13  1  0  0  0
 12 14  1  0  0  0
 14 15  2  0  0  0
 14 16  1  0  0  0
 16 17  1  0  0  0
 16 25  1  0  0  0
 17 18  1  0  0  0
 18 19  1  0  0  0
 19 20  2  0  0  0
 19 21  1  0  0  0
 20 22  1  0  0  0
 21 23  2  0  0  0
 22 24  2  0  0  0
 23 24  1  0  0  0
 25 26  1  0  0  0
 26 27  1  0  0  0
 28 31  1  0  0  0
 28 32  1  0  0  0
M  END
>  <CHROM.0>
-172.32281357,-62.84355941,173.56027311,-71.57546160,87.21113545,72.67200257
-93.64577665,-82.78554304,163.04994907,178.66079596,-108.11935201,-100.59780063

>  <CHROM.1>
179.25559259,-15.14085063,66.27976200,-128.69602534,-61.80815130,112.01335061
80.94523400,153.06176222,-93.76312540,-169.66111494,-1.00823128,59.16859079
-7.74824051,-0.62652657,0.76678245,-1.38949973

>  <FORMUL>
      DPC    C20 H27 N3 O5

>  <HET>
 DPC  A 466      28

>  <HETNAM>
     DPC 5-ACETYLAMINO-4-AMINO-6-(PHENETHYL-PROPYL-CARBAMOYL)-5,
   2 DPC 6-DIHYDRO-4H-PYRAN-2-CARBOXYLIC ACID

>  <Name>
DPC.pdb

>  <RI>
0

>  <Rbt.Current_Directory>
/home/malgorzata/Desktop/rDOCK_IFD/Wyniki/11_neuraminidase/IFD

>  <Rbt.Executable>
rbdock ($Id: //depot/dev/client3/rdock/2013.1/src/exe/rbdock.cxx#4 $)

>  <Rbt.Library>
libRbt.so (2013.1, Build901 2013/11/27)

>  <Rbt.Parameter_File>
/home/malgorzata/Desktop/rDock_2013.1_src/data/scripts/dock.prm

>  <Rbt.Receptor>
cavity.prm

>  <SCORE>
-45.1123

>  <SCORE.INTER>
-13.1328

>  <SCORE.INTER.CONST>
1

>  <SCORE.INTER.POLAR>
-2.27763

>  <SCORE.INTER.REPUL>
0.25925

>  <SCORE.INTER.ROT>
9

>  <SCORE.INTER.VDW>
-21.0851

>  <SCORE.INTER.norm>
-0.469029

>  <SCORE.INTRA>
0.859093

>  <SCORE.INTRA.DIHEDRAL>
3.14559

>  <SCORE.INTRA.DIHEDRAL.0>
7.68839

>  <SCORE.INTRA.POLAR>
-0.00174577

>  <SCORE.INTRA.POLAR.0>
0

>  <SCORE.INTRA.REPUL>
0

>  <SCORE.INTRA.REPUL.0>
0

>  <SCORE.INTRA.VDW>
-0.707765

>  <SCORE.INTRA.VDW.0>
-2.73227

>  <SCORE.INTRA.norm>
0.0306819

>  <SCORE.RESTR>
0.526305

>  <SCORE.RESTR.CAVITY>
0.526305

>  <SCORE.RESTR.norm>
0.0187966

>  <SCORE.SYSTEM>
-33.3649

>  <SCORE.SYSTEM.CONST>
0

>  <SCORE.SYSTEM.DIHEDRAL>
4.34025

>  <SCORE.SYSTEM.POLAR>
-9.49088

>  <SCORE.SYSTEM.VDW>
-3.26601

>  <SCORE.SYSTEM.norm>
-1.1916

>  <SCORE.heavy>
28

>  <SCORE.norm>
-1.61115

$$$$
DPC.pdb
  rDOCK(R)          3D
libRbt.so/2013.1/901 2013/11/27
 32 33  0  0  0  0  0  0  0  0999 V2000
    0.3484   54.5358   -9.7136 C   0  0  0  0  0  0
    1.4622   54.1037   -9.4406 O   0  0  0  0  0  0
   -0.3137   53.9962  -10.5898 O   0  0  0  0  0  0
   -0.2163   55.6210   -8.8914 C   0  0  0  0  0  0
    0.4059   56.0415   -7.7850 C   0  0  0  0  0  0
   -0.1467   57.1871   -6.9812 C   0  0  0  0  0  0
   -1.6008   57.4865   -7.3361 C   0  0  0  0  0  0
   -1.9422   58.8268   -6.8738 N   0  0  0  0  0  0
   -1.3788   59.9570   -7.3277 C   0  0  0  0  0  0
   -0.4822   59.9318   -8.1534 O   0  0  0  0  0  0
   -1.9550   61.2783   -6.7865 C   0  0  0  0  0  0
   -1.7660   57.4254   -8.8529 C   0  0  0  0  0  0
   -1.3303   56.1895   -9.3524 O   0  0  0  0  0  0
   -3.2353   57.4773   -9.2062 C   0  0  0  0  0  0
   -3.8064   57.2314   -8.4615 O   0  0  0  0  0  0
   -3.6222   57.9893  -10.3666 N   0  0  0  0  0  0
   -5.0826   58.0836  -10.5863 C   0  0  0  0  0  0
   -5.5161   59.4767  -11.0532 C   0  0  0  0  0  0
   -5.0220   59.6936  -12.4697 C   0  0  0  0  0  0
   -4.4933   60.9449  -12.8582 C   0  0  0  0  0  0
   -5.1119   58.6688  -13.4227 C   0  0  0  0  0  0
   -4.0969   61.1747  -14.1874 C   0  0  0  0  0  0
   -4.7172   58.8956  -14.7450 C   0  0  0  0  0  0
   -4.2207   60.1457  -15.1388 C   0  0  0  0  0  0
   -2.7060   58.3837  -11.4344 C   0  0  0  0  0  0
   -2.0346   59.7406  -11.1616 C   0  0  0  0  0  0
   -1.2815   60.3498  -12.3590 C   0  0  0  0  0  0
   -0.0391   56.8733   -5.5814 N   0  0  0  0  0  0
    0.0428   53.2739  -11.0686 H   0  0  0  0  0  0
   -2.6353   58.9083   -6.1794 H   0  0  0  0  0  0
    0.7779   57.3420   -5.1898 H   0  0  0  0  0  0
    0.0596   55.8647   -5.4656 H   0  0  0  0  0  0
  1  2  2  0  0  0
  1  3  1  0  0  0
  1  4  1  0  0  0
  3 29  1  0  0  0
  4  5  2  0  0  0
  4 13  1  0  0  0
  5  6  1  0  0  0
  6  7  1  0  0  0
  6 28  1  0  0  0
  7  8  1  0  0  0
  7 12  1  0  0  0
  8  9  1  0  0  0
  8 30  1  0  0  0
  9 10  2  0  0  0
  9 11  1  0  0  0
 12 13  1  0  0  0
 12 14  1  0  0  0
 14 15  2  0  0  0
 14 16  1  0  0  0
 16 17  1  0  0  0
 16 25  1  0  0  0
 17 18  1  0  0  0
 18 19  1  0  0  0
 19 20  2  0  0  0
 19 21  1  0  0  0
 20 22  1  0  0  0
 21 23  2  0  0  0
 22 24  2  0  0  0
 23 24  1  0  0  0
 25 26  1  0  0  0
 26 27  1  0  0  0
 28 31  1  0  0  0
 28 32  1  0  0  0
M  END
>  <CHROM.0>
66.27159874,-63.35053949,-167.38882245,164.72331054,15.73319949,74.43840586
-89.50423178,-72.62089329,152.18347949,177.15131706,-110.81622820,141.26125912

>  <CHROM.1>
-2.06307207,-6.71539288,99.82006979,63.75270214,-19.93239385,129.87004865
-78.21521031,70.12898498,-139.41011796,-168.28472600,-2.22096133,58.08638711
-9.96989459,-0.30964466,0.95827432,-2.19668698

>  <FORMUL>
      DPC    C20 H27 N3 O5

>  <HET>
 DPC  A 466      28

>  <HETNAM>
     DPC 5-ACETYLAMINO-4-AMINO-6-(PHENETHYL-PROPYL-CARBAMOYL)-5,
   2 DPC 6-DIHYDRO-4H-PYRAN-2-CARBOXYLIC ACID

>  <Name>
DPC.pdb

>  <RI>
0

>  <Rbt.Current_Directory>
/home/malgorzata/Desktop/rDOCK_IFD/Wyniki/11_neuraminidase/IFD

>  <Rbt.Executable>
rbdock ($Id: //depot/dev/client3/rdock/2013.1/src/exe/rbdock.cxx#4 $)

>  <Rbt.Library>
libRbt.so (2013.1, Build901 2013/11/27)

>  <Rbt.Parameter_File>
/home/malgorzata/Desktop/rDock_2013.1_src/data/scripts/dock.prm

>  <Rbt.Receptor>
cavity.prm

>  <SCORE>
-45.4713

>  <SCORE.INTER>
-13.1952

>  <SCORE.INTER.CONST>
1

>  <SCORE.INTER.POLAR>
-3.61415

>  <SCORE.INTER.REPUL>
0.459037

>  <SCORE.INTER.ROT>
9

>  <SCORE.INTER.VDW>
-17.6023

>  <SCORE.INTER.norm>
-0.471257

>  <SCORE.INTRA>
3.84505

>  <SCORE.INTRA.DIHEDRAL>
1.20049

>  <SCORE.INTRA.DIHEDRAL.0>
7.68839

>  <SCORE.INTRA.POLAR>
0

>  <SCORE.INTRA.POLAR.0>
0

>  <SCORE.INTRA.REPUL>
0

>  <SCORE.INTRA.REPUL.0>
0

>  <SCORE.INTRA.VDW>
3.2448

>  <SCORE.INTRA.VDW.0>
-2.73227

>  <SCORE.INTRA.norm>
0.137323

>  <SCORE.RESTR>
0

>  <SCORE.RESTR.CAVITY>
0

>  <SCORE.RESTR.norm>
0

>  <SCORE.SYSTEM>
-36.1211

>  <SCORE.SYSTEM.CONST>
0

>  <SCORE.SYSTEM.DIHEDRAL>
5.48978

>  <SCORE.SYSTEM.POLAR>
-10.0512

>  <SCORE.SYSTEM.REPUL>
0.144355

>  <SCORE.SYSTEM.VDW>
-5.41374

>  <SCORE.SYSTEM.norm>
-1.29004

>  <SCORE.heavy>
28

>  <SCORE.norm>
-1.62397

$$$$
DPC.pdb
  rDOCK(R)          3D
libRbt.so/2013.1/901 2013/11/27
 32 33  0  0  0  0  0  0  0  0999 V2000
   -6.2057   57.9643  -12.5304 C   0  0  0  0  0  0
   -7.4197   57.9217  -12.3681 O   0  0  0  0  0  0
   -5.7496   58.1512  -13.6504 O   0  0  0  0  0  0
   -5.3264   57.9128  -11.3487 C   0  0  0  0  0  0
   -4.2837   57.0769  -11.3023 C   0  0  0  0  0  0
   -3.3575   57.0692  -10.1166 C   0  0  0  0  0  0
   -3.9668   57.7775   -8.9096 C   0  0  0  0  0  0
   -2.9074   58.1192   -7.9675 N   0  0  0  0  0  0
   -1.8313   58.8631   -8.2663 C   0  0  0  0  0  0
   -1.6414   59.2788   -9.3966 O   0  0  0  0  0  0
   -0.8817   59.1984   -7.1016 C   0  0  0  0  0  0
   -4.6503   59.0602   -9.3775 C   0  0  0  0  0  0
   -5.5944   58.7858  -10.3776 O   0  0  0  0  0  0
   -5.4621   59.6457   -8.2441 C   0  0  0  0  0  0
   -5.8710   58.9641   -7.6880 O   0  0  0  0  0  0
   -5.4174   60.9480   -7.9981 N   0  0  0  0  0  0
   -6.1702   61.4167   -6.8134 C   0  0  0  0  0  0
   -5.3724   62.4161   -5.9699 C   0  0  0  0  0  0
   -4.4717   61.6479   -5.0233 C   0  0  0  0  0  0
   -3.5871   60.6642   -5.5193 C   0  0  0  0  0  0
   -4.5256   61.8779   -3.6410 C   0  0  0  0  0  0
   -2.7988   59.8999   -4.6410 C   0  0  0  0  0  0
   -3.7414   61.1191   -2.7663 C   0  0  0  0  0  0
   -2.8858   60.1223   -3.2546 C   0  0  0  0  0  0
   -4.7432   61.9211   -8.8547 C   0  0  0  0  0  0
   -3.2199   61.9366   -8.6411 C   0  0  0  0  0  0
   -2.4513   62.9665   -9.4900 C   0  0  0  0  0  0
   -3.0412   55.7075   -9.7770 N   0  0  0  0  0  0
   -4.8224   58.2020  -13.7761 H   0  0  0  0  0  0
   -2.9874   57.7801   -7.0467 H   0  0  0  0  0  0
   -2.8338   55.6451   -8.7802 H   0  0  0  0  0  0
   -2.2284   55.4034  -10.3131 H   0  0  0  0  0  0
  1  2  2  0  0  0
  1  3  1  0  0  0
  1  4  1  0  0  0
  3 29  1  0  0  0
  4  5  2  0  0  0
  4 13  1  0  0  0
  5  6  1  0  0  0
  6  7  1  0  0  0
  6 28  1  0  0  0
  7  8  1  0  0  0
  7 12  1  0  0  0
  8  9  1  0  0  0
  8 30  1  0  0  0
  9 10  2  0  0  0
  9 11  1  0  0  0
 12 13  1  0  0  0
 12 14  1  0  0  0
 14 15  2  0  0  0
 14 16  1  0  0  0
 16 17  1  0  0  0
 16 25  1  0  0  0
 17 18  1  0  0  0
 18 19  1  0  0  0
 19 20  2  0  0  0
 19 21  1  0  0  0
 20 22  1  0  0  0
 21 23  2  0  0  0
 22 24  2  0  0  0
 23 24  1  0  0  0
 25 26  1  0  0  0
 26 27  1  0  0  0
 28 31  1  0  0  0
 28 32  1  0  0  0
M  END
>  <CHROM.0>
64.20109596,-63.93565259,-47.05349047,154.87815982,93.20811946,70.80821110
-162.90154381,-84.23296510,157.70820912,-176.25389840,108.31584872,-116.51806221

>  <CHROM.1>
178.74338482,131.49114668,-151.98604073,56.70050749,-35.70616067,135.51836220
-79.05495814,-84.33833379,53.59508300,-178.55785225,-4.20107321,59.55506926
-8.34786038,1.81218753,0.64565164,-2.17565211

>  <FORMUL>
      DPC    C20 H27 N3 O5

>  <HET>
 DPC  A 466      28

>  <HETNAM>
     DPC 5-ACETYLAMINO-4-AMINO-6-(PHENETHYL-PROPYL-CARBAMOYL)-5,
   2 DPC 6-DIHYDRO-4H-PYRAN-2-CARBOXYLIC ACID

>  <Name>
DPC.pdb

>  <RI>
0

>  <Rbt.Current_Directory>
/home/malgorzata/Desktop/rDOCK_IFD/Wyniki/11_neuraminidase/IFD

>  <Rbt.Executable>
rbdock ($Id: //depot/dev/client3/rdock/2013.1/src/exe/rbdock.cxx#4 $)

>  <Rbt.Library>
libRbt.so (2013.1, Build901 2013/11/27)

>  <Rbt.Parameter_File>
/home/malgorzata/Desktop/rDock_2013.1_src/data/scripts/dock.prm

>  <Rbt.Receptor>
cavity.prm

>  <SCORE>
-41.4244

>  <SCORE.INTER>
-13.0354

>  <SCORE.INTER.CONST>
1

>  <SCORE.INTER.POLAR>
-2.46374

>  <SCORE.INTER.REPUL>
0.0314853

>  <SCORE.INTER.ROT>
9

>  <SCORE.INTER.VDW>
-19.2161

>  <SCORE.INTER.norm>
-0.465551

>  <SCORE.INTRA>
4.18117

>  <SCORE.INTRA.DIHEDRAL>
8.97437

>  <SCORE.INTRA.DIHEDRAL.0>
7.68839

>  <SCORE.INTRA.POLAR>
0

>  <SCORE.INTRA.POLAR.0>
0

>  <SCORE.INTRA.REPUL>
0

>  <SCORE.INTRA.REPUL.0>
0

>  <SCORE.INTRA.VDW>
-0.30601

>  <SCORE.INTRA.VDW.0>
-2.73227

>  <SCORE.INTRA.norm>
0.149328

>  <SCORE.RESTR>
0

>  <SCORE.RESTR.CAVITY>
0

>  <SCORE.RESTR.norm>
0

>  <SCORE.SYSTEM>
-32.5701

>  <SCORE.SYSTEM.CONST>
0

>  <SCORE.SYSTEM.DIHEDRAL>
6.63402

>  <SCORE.SYSTEM.POLAR>
-9.43916

>  <SCORE.SYSTEM.VDW>
-3.79399

>  <SCORE.SYSTEM.norm>
-1.16322

>  <SCORE.heavy>
28

>  <SCORE.norm>
-1.47944

$$$$
