DPC.pdb
  rDOCK(R)          3D
libRbt.so/2013.1/901 2013/11/27
 32 33  0  0  0  0  0  0  0  0999 V2000
   -1.6131   62.0799   -3.9970 C   0  0  0  0  0  0
   -2.1716   63.0340   -4.5258 O   0  0  0  0  0  0
   -1.3639   62.1102   -2.7994 O   0  0  0  0  0  0
   -1.3671   60.8658   -4.7957 C   0  0  0  0  0  0
   -0.7874   59.7901   -4.2524 C   0  0  0  0  0  0
   -0.5902   58.5347   -5.0579 C   0  0  0  0  0  0
   -0.7409   58.7860   -6.5559 C   0  0  0  0  0  0
   -0.9716   57.5165   -7.2355 N   0  0  0  0  0  0
   -0.0206   56.7955   -7.8488 C   0  0  0  0  0  0
    1.1304   57.1915   -7.9179 O   0  0  0  0  0  0
   -0.4506   55.4298   -8.4154 C   0  0  0  0  0  0
   -1.9407   59.7013   -6.7891 C   0  0  0  0  0  0
   -1.8139   60.8871   -6.0514 O   0  0  0  0  0  0
   -1.9602   60.1555   -8.2312 C   0  0  0  0  0  0
   -1.2418   59.7662   -8.7541 O   0  0  0  0  0  0
   -2.9847   60.8599   -8.6924 N   0  0  0  0  0  0
   -2.9616   61.1803  -10.1369 C   0  0  0  0  0  0
   -3.9985   60.3799  -10.9313 C   0  0  0  0  0  0
   -3.6397   58.9089  -10.8606 C   0  0  0  0  0  0
   -4.3933   58.0277  -10.0532 C   0  0  0  0  0  0
   -2.5376   58.4073  -11.5679 C   0  0  0  0  0  0
   -4.0250   56.6765   -9.9289 C   0  0  0  0  0  0
   -2.1707   57.0634  -11.4460 C   0  0  0  0  0  0
   -2.8992   56.1950  -10.6218 C   0  0  0  0  0  0
   -4.0633   61.3814   -7.8559 C   0  0  0  0  0  0
   -3.7411   62.7706   -7.2794 C   0  0  0  0  0  0
   -4.7591   63.3056   -6.2550 C   0  0  0  0  0  0
    0.7159   57.9992   -4.7803 N   0  0  0  0  0  0
   -1.4251   62.9180   -2.3285 H   0  0  0  0  0  0
   -1.8905   57.1633   -7.2448 H   0  0  0  0  0  0
    0.8398   57.1240   -5.2894 H   0  0  0  0  0  0
    0.8066   57.8260   -3.7792 H   0  0  0  0  0  0
  1  2  2  0  0  0
  1  3  1  0  0  0
  1  4  1  0  0  0
  3 29  1  0  0  0
  4  5  2  0  0  0
  4 13  1  0  0  0
  5  6  1  0  0  0
  6  7  1  0  0  0
  6 28  1  0  0  0
  7  8  1  0  0  0
  7 12  1  0  0  0
  8  9  1  0  0  0
  8 30  1  0  0  0
  9 10  2  0  0  0
  9 11  1  0  0  0
 12 13  1  0  0  0
 12 14  1  0  0  0
 14 15  2  0  0  0
 14 16  1  0  0  0
 16 17  1  0  0  0
 16 25  1  0  0  0
 17 18  1  0  0  0
 18 19  1  0  0  0
 19 20  2  0  0  0
 19 21  1  0  0  0
 20 22  1  0  0  0
 21 23  2  0  0  0
 22 24  2  0  0  0
 23 24  1  0  0  0
 25 26  1  0  0  0
 26 27  1  0  0  0
 28 31  1  0  0  0
 28 32  1  0  0  0
M  END
>  <CHROM.0>
-73.10117335,-176.75305032,66.56493294,166.76519875,-55.70285364,146.13393886
-58.32683560,3.10807775,162.46818414,178.07305425,-153.76924078

>  <CHROM.1>
-13.29500088,-178.52589309,177.34902116,-97.60257541,2.21717752,108.03075768
87.99388805,-64.58391967,106.16533614,-172.99544354,-2.01476768,59.53744916
-7.54952989,1.42407906,-0.84270565,0.83661360

>  <FORMUL>
      DPC    C20 H27 N3 O5

>  <HET>
 DPC  A 466      28

>  <HETNAM>
     DPC 5-ACETYLAMINO-4-AMINO-6-(PHENETHYL-PROPYL-CARBAMOYL)-5,
   2 DPC 6-DIHYDRO-4H-PYRAN-2-CARBOXYLIC ACID

>  <Name>
DPC.pdb

>  <RI>
0

>  <Rbt.Current_Directory>
/home/malgorzata/Desktop/rDOCK_IFD/Wyniki/11_neuraminidase/IFD

>  <Rbt.Executable>
rbdock ($Id: //depot/dev/client3/rdock/2013.1/src/exe/rbdock.cxx#4 $)

>  <Rbt.Library>
libRbt.so (2013.1, Build901 2013/11/27)

>  <Rbt.Parameter_File>
/home/malgorzata/Desktop/rDock_2013.1_src/data/scripts/dock.prm

>  <Rbt.Receptor>
cavity.prm

>  <SCORE>
-26.2856

>  <SCORE.INTER>
-10.2487

>  <SCORE.INTER.CONST>
1

>  <SCORE.INTER.POLAR>
-1.57801

>  <SCORE.INTER.REPUL>
0.0543607

>  <SCORE.INTER.ROT>
9

>  <SCORE.INTER.VDW>
-19.5553

>  <SCORE.INTER.norm>
-0.366025

>  <SCORE.INTRA>
-1.36328

>  <SCORE.INTRA.DIHEDRAL>
-1.4306

>  <SCORE.INTRA.DIHEDRAL.0>
7.68839

>  <SCORE.INTRA.POLAR>
0

>  <SCORE.INTRA.POLAR.0>
0

>  <SCORE.INTRA.REPUL>
0

>  <SCORE.INTRA.REPUL.0>
0

>  <SCORE.INTRA.VDW>
-0.647982

>  <SCORE.INTRA.VDW.0>
-2.73227

>  <SCORE.INTRA.norm>
-0.0486886

>  <SCORE.RESTR>
0

>  <SCORE.RESTR.CAVITY>
0

>  <SCORE.RESTR.norm>
0

>  <SCORE.SYSTEM>
-14.6736

>  <SCORE.SYSTEM.CONST>
0

>  <SCORE.SYSTEM.DIHEDRAL>
3.15761

>  <SCORE.SYSTEM.POLAR>
-3.8741

>  <SCORE.SYSTEM.VDW>
-3.08049

>  <SCORE.SYSTEM.norm>
-0.524059

>  <SCORE.heavy>
28

>  <SCORE.norm>
-0.938772

$$$$
DPC.pdb
  rDOCK(R)          3D
libRbt.so/2013.1/901 2013/11/27
 32 33  0  0  0  0  0  0  0  0999 V2000
   -0.2063   59.4784   -5.7548 C   0  0  0  0  0  0
    0.5446   59.1105   -4.8587 O   0  0  0  0  0  0
   -0.6645   60.6128   -5.7349 O   0  0  0  0  0  0
   -0.4397   58.5825   -6.9017 C   0  0  0  0  0  0
    0.1572   57.3882   -6.9749 C   0  0  0  0  0  0
   -0.1289   56.4555   -8.1204 C   0  0  0  0  0  0
   -0.7997   57.1727   -9.2889 C   0  0  0  0  0  0
   -1.4325   56.1876  -10.1583 N   0  0  0  0  0  0
   -2.3931   55.3341   -9.7718 C   0  0  0  0  0  0
   -2.7811   55.2964   -8.6167 O   0  0  0  0  0  0
   -3.0055   54.4447  -10.8694 C   0  0  0  0  0  0
   -1.8690   58.1177   -8.7456 C   0  0  0  0  0  0
   -1.3204   59.0053   -7.8086 O   0  0  0  0  0  0
   -2.3721   59.0090   -9.8586 C   0  0  0  0  0  0
   -1.7387   59.0859  -10.5893 O   0  0  0  0  0  0
   -3.6234   59.4480   -9.8445 N   0  0  0  0  0  0
   -4.0538   60.2367  -11.0202 C   0  0  0  0  0  0
   -3.3387   61.5883  -11.1128 C   0  0  0  0  0  0
   -3.7264   62.2586  -12.4159 C   0  0  0  0  0  0
   -4.6751   63.3055  -12.4262 C   0  0  0  0  0  0
   -3.1755   61.8294  -13.6319 C   0  0  0  0  0  0
   -5.0906   63.8852  -13.6379 C   0  0  0  0  0  0
   -3.5871   62.4056  -14.8378 C   0  0  0  0  0  0
   -4.5503   63.4235  -14.8520 C   0  0  0  0  0  0
   -4.5453   59.2594   -8.7267 C   0  0  0  0  0  0
   -4.8969   57.7794   -8.4978 C   0  0  0  0  0  0
   -5.5307   57.0637   -9.7054 C   0  0  0  0  0  0
    1.1039   55.8559   -8.5566 N   0  0  0  0  0  0
   -0.4462   61.1940   -5.0330 H   0  0  0  0  0  0
   -1.1336   56.1457  -11.0954 H   0  0  0  0  0  0
    0.8998   55.0374   -9.1300 H   0  0  0  0  0  0
    1.6511   55.5736   -7.7434 H   0  0  0  0  0  0
  1  2  2  0  0  0
  1  3  1  0  0  0
  1  4  1  0  0  0
  3 29  1  0  0  0
  4  5  2  0  0  0
  4 13  1  0  0  0
  5  6  1  0  0  0
  6  7  1  0  0  0
  6 28  1  0  0  0
  7  8  1  0  0  0
  7 12  1  0  0  0
  8  9  1  0  0  0
  8 30  1  0  0  0
  9 10  2  0  0  0
  9 11  1  0  0  0
 12 13  1  0  0  0
 12 14  1  0  0  0
 14 15  2  0  0  0
 14 16  1  0  0  0
 16 17  1  0  0  0
 16 25  1  0  0  0
 17 18  1  0  0  0
 18 19  1  0  0  0
 19 20  2  0  0  0
 19 21  1  0  0  0
 20 22  1  0  0  0
 21 23  2  0  0  0
 22 24  2  0  0  0
 23 24  1  0  0  0
 25 26  1  0  0  0
 26 27  1  0  0  0
 28 31  1  0  0  0
 28 32  1  0  0  0
M  END
>  <CHROM.0>
-89.40525466,-177.23318147,-63.88920647,162.87446916,64.85308069,158.71262784
143.13389020,99.10897057,76.55006715,178.60285983,-151.85635962

>  <CHROM.1>
-0.48634866,-0.24284063,163.53510460,59.67388494,-22.20870292,-67.41167149
-65.64391467,173.98192493,102.56199051,-58.07429094,-2.39505337,58.97958073
-9.67504462,-0.70182473,-0.99190796,-0.05165052

>  <FORMUL>
      DPC    C20 H27 N3 O5

>  <HET>
 DPC  A 466      28

>  <HETNAM>
     DPC 5-ACETYLAMINO-4-AMINO-6-(PHENETHYL-PROPYL-CARBAMOYL)-5,
   2 DPC 6-DIHYDRO-4H-PYRAN-2-CARBOXYLIC ACID

>  <Name>
DPC.pdb

>  <RI>
0

>  <Rbt.Current_Directory>
/home/malgorzata/Desktop/rDOCK_IFD/Wyniki/11_neuraminidase/IFD

>  <Rbt.Executable>
rbdock ($Id: //depot/dev/client3/rdock/2013.1/src/exe/rbdock.cxx#4 $)

>  <Rbt.Library>
libRbt.so (2013.1, Build901 2013/11/27)

>  <Rbt.Parameter_File>
/home/malgorzata/Desktop/rDock_2013.1_src/data/scripts/dock.prm

>  <Rbt.Receptor>
cavity.prm

>  <SCORE>
-23.3466

>  <SCORE.INTER>
-7.82868

>  <SCORE.INTER.CONST>
1

>  <SCORE.INTER.POLAR>
-2.25353

>  <SCORE.INTER.REPUL>
0

>  <SCORE.INTER.ROT>
9

>  <SCORE.INTER.VDW>
-14.5667

>  <SCORE.INTER.norm>
-0.279596

>  <SCORE.INTRA>
0.723233

>  <SCORE.INTRA.DIHEDRAL>
-1.17916

>  <SCORE.INTRA.DIHEDRAL.0>
7.68839

>  <SCORE.INTRA.POLAR>
0

>  <SCORE.INTRA.POLAR.0>
0

>  <SCORE.INTRA.REPUL>
0

>  <SCORE.INTRA.REPUL.0>
0

>  <SCORE.INTRA.VDW>
1.31281

>  <SCORE.INTRA.VDW.0>
-2.73227

>  <SCORE.INTRA.norm>
0.0258297

>  <SCORE.RESTR>
0

>  <SCORE.RESTR.CAVITY>
0

>  <SCORE.RESTR.norm>
0

>  <SCORE.SYSTEM>
-16.2412

>  <SCORE.SYSTEM.CONST>
0

>  <SCORE.SYSTEM.DIHEDRAL>
3.0322

>  <SCORE.SYSTEM.POLAR>
-4.24648

>  <SCORE.SYSTEM.VDW>
-3.31928

>  <SCORE.SYSTEM.norm>
-0.580043

>  <SCORE.heavy>
28

>  <SCORE.norm>
-0.833809

$$$$
DPC.pdb
  rDOCK(R)          3D
libRbt.so/2013.1/901 2013/11/27
 32 33  0  0  0  0  0  0  0  0999 V2000
    0.0749   58.2153   -4.0827 C   0  0  0  0  0  0
    0.5894   58.6897   -3.0766 O   0  0  0  0  0  0
    0.0688   57.0028   -4.2468 O   0  0  0  0  0  0
   -0.6349   59.1133   -5.0112 C   0  0  0  0  0  0
   -0.4536   60.4373   -4.9622 C   0  0  0  0  0  0
   -1.1380   61.3435   -5.9492 C   0  0  0  0  0  0
   -2.2882   60.6428   -6.6676 C   0  0  0  0  0  0
   -2.6224   61.3850   -7.8776 N   0  0  0  0  0  0
   -3.8253   61.9203   -8.1366 C   0  0  0  0  0  0
   -4.7618   61.7774   -7.3693 O   0  0  0  0  0  0
   -3.9432   62.7573   -9.4236 C   0  0  0  0  0  0
   -1.8487   59.2323   -7.0537 C   0  0  0  0  0  0
   -1.4015   58.5241   -5.9289 O   0  0  0  0  0  0
   -3.0427   58.4447   -7.5439 C   0  0  0  0  0  0
   -3.8861   58.8666   -7.3164 O   0  0  0  0  0  0
   -2.8682   57.4034   -8.3463 N   0  0  0  0  0  0
   -4.0975   56.7512   -8.8494 C   0  0  0  0  0  0
   -4.3720   57.0747  -10.3214 C   0  0  0  0  0  0
   -3.2434   56.5144  -11.1641 C   0  0  0  0  0  0
   -3.0300   55.1196  -11.2359 C   0  0  0  0  0  0
   -2.3760   57.3708  -11.8573 C   0  0  0  0  0  0
   -1.9440   54.5964  -11.9597 C   0  0  0  0  0  0
   -1.2959   56.8519  -12.5783 C   0  0  0  0  0  0
   -1.0653   55.4703  -12.6257 C   0  0  0  0  0  0
   -1.5631   56.8416   -8.6875 C   0  0  0  0  0  0
   -1.0798   55.8085   -7.6552 C   0  0  0  0  0  0
   -1.8720   54.4880   -7.6315 C   0  0  0  0  0  0
   -1.6283   62.5058   -5.2577 N   0  0  0  0  0  0
    0.4382   56.4399   -3.5951 H   0  0  0  0  0  0
   -1.9151   61.5016   -8.5525 H   0  0  0  0  0  0
   -0.8419   63.0303   -4.8745 H   0  0  0  0  0  0
   -2.2451   62.2151   -4.4991 H   0  0  0  0  0  0
  1  2  2  0  0  0
  1  3  1  0  0  0
  1  4  1  0  0  0
  3 29  1  0  0  0
  4  5  2  0  0  0
  4 13  1  0  0  0
  5  6  1  0  0  0
  6  7  1  0  0  0
  6 28  1  0  0  0
  7  8  1  0  0  0
  7 12  1  0  0  0
  8  9  1  0  0  0
  8 30  1  0  0  0
  9 10  2  0  0  0
  9 11  1  0  0  0
 12 13  1  0  0  0
 12 14  1  0  0  0
 14 15  2  0  0  0
 14 16  1  0  0  0
 16 17  1  0  0  0
 16 25  1  0  0  0
 17 18  1  0  0  0
 18 19  1  0  0  0
 19 20  2  0  0  0
 19 21  1  0  0  0
 20 22  1  0  0  0
 21 23  2  0  0  0
 22 24  2  0  0  0
 23 24  1  0  0  0
 25 26  1  0  0  0
 26 27  1  0  0  0
 28 31  1  0  0  0
 28 32  1  0  0  0
M  END
>  <CHROM.0>
-111.00987896,66.49011392,65.27761389,158.63496642,66.50275803,123.59078984
154.58848441,98.35157286,-35.20560528,159.60352264,-149.71582540

>  <CHROM.1>
1.45841354,16.58544399,63.60536802,-120.63725242,-14.97578942,105.59521914
86.12946645,63.51330179,64.63418493,69.31182111,-2.12363627,58.43861588,-7.85966914
-1.29281747,1.00190195,-2.45535155

>  <FORMUL>
      DPC    C20 H27 N3 O5

>  <HET>
 DPC  A 466      28

>  <HETNAM>
     DPC 5-ACETYLAMINO-4-AMINO-6-(PHENETHYL-PROPYL-CARBAMOYL)-5,
   2 DPC 6-DIHYDRO-4H-PYRAN-2-CARBOXYLIC ACID

>  <Name>
DPC.pdb

>  <RI>
0

>  <Rbt.Current_Directory>
/home/malgorzata/Desktop/rDOCK_IFD/Wyniki/11_neuraminidase/IFD

>  <Rbt.Executable>
rbdock ($Id: //depot/dev/client3/rdock/2013.1/src/exe/rbdock.cxx#4 $)

>  <Rbt.Library>
libRbt.so (2013.1, Build901 2013/11/27)

>  <Rbt.Parameter_File>
/home/malgorzata/Desktop/rDock_2013.1_src/data/scripts/dock.prm

>  <Rbt.Receptor>
cavity.prm

>  <SCORE>
-28.3133

>  <SCORE.INTER>
-14.15

>  <SCORE.INTER.CONST>
1

>  <SCORE.INTER.POLAR>
-2.08334

>  <SCORE.INTER.REPUL>
0

>  <SCORE.INTER.ROT>
9

>  <SCORE.INTER.VDW>
-21.4667

>  <SCORE.INTER.norm>
-0.505358

>  <SCORE.INTRA>
-0.0962364

>  <SCORE.INTRA.DIHEDRAL>
-1.14194

>  <SCORE.INTRA.DIHEDRAL.0>
7.68839

>  <SCORE.INTRA.POLAR>
0

>  <SCORE.INTRA.POLAR.0>
0

>  <SCORE.INTRA.REPUL>
0

>  <SCORE.INTRA.REPUL.0>
0

>  <SCORE.INTRA.VDW>
0.474734

>  <SCORE.INTRA.VDW.0>
-2.73227

>  <SCORE.INTRA.norm>
-0.00343701

>  <SCORE.RESTR>
0

>  <SCORE.RESTR.CAVITY>
0

>  <SCORE.RESTR.norm>
0

>  <SCORE.SYSTEM>
-14.067

>  <SCORE.SYSTEM.CONST>
0

>  <SCORE.SYSTEM.DIHEDRAL>
3.93754

>  <SCORE.SYSTEM.POLAR>
-3.89719

>  <SCORE.SYSTEM.VDW>
-2.78531

>  <SCORE.SYSTEM.norm>
-0.502393

>  <SCORE.heavy>
28

>  <SCORE.norm>
-1.01119

$$$$
DPC.pdb
  rDOCK(R)          3D
libRbt.so/2013.1/901 2013/11/27
 32 33  0  0  0  0  0  0  0  0999 V2000
   -2.1527   60.6411   -3.8869 C   0  0  0  0  0  0
   -3.0309   61.4781   -4.0604 O   0  0  0  0  0  0
   -1.7075   60.4529   -2.7628 O   0  0  0  0  0  0
   -1.7422   59.7933   -5.0206 C   0  0  0  0  0  0
   -0.6623   59.0089   -4.9380 C   0  0  0  0  0  0
   -0.2811   58.1042   -6.0782 C   0  0  0  0  0  0
   -0.9865   58.4900   -7.3757 C   0  0  0  0  0  0
   -0.9322   57.3671   -8.3045 N   0  0  0  0  0  0
   -1.4072   56.1391   -8.0456 C   0  0  0  0  0  0
   -1.8922   55.8619   -6.9620 O   0  0  0  0  0  0
   -1.3484   55.1213   -9.1994 C   0  0  0  0  0  0
   -2.4471   58.8145   -7.0710 C   0  0  0  0  0  0
   -2.5420   59.8091   -6.0868 O   0  0  0  0  0  0
   -3.0960   59.4290   -8.2907 C   0  0  0  0  0  0
   -2.4938   60.0120   -8.7791 O   0  0  0  0  0  0
   -4.2955   59.0210   -8.6821 N   0  0  0  0  0  0
   -4.8106   59.6115   -9.9374 C   0  0  0  0  0  0
   -4.0488   59.1197  -11.1721 C   0  0  0  0  0  0
   -4.7704   59.6000  -12.4155 C   0  0  0  0  0  0
   -4.4025   60.8183  -13.0293 C   0  0  0  0  0  0
   -5.8328   58.8610  -12.9556 C   0  0  0  0  0  0
   -5.1120   61.3039  -14.1418 C   0  0  0  0  0  0
   -6.5388   59.3424  -14.0626 C   0  0  0  0  0  0
   -6.1944   60.5654  -14.6540 C   0  0  0  0  0  0
   -5.1375   58.1018   -7.9196 C   0  0  0  0  0  0
   -5.6541   56.9316   -8.7740 C   0  0  0  0  0  0
   -4.5611   56.0232   -9.3676 C   0  0  0  0  0  0
    1.1448   58.1562   -6.2620 N   0  0  0  0  0  0
   -1.8869   61.0678   -2.0789 H   0  0  0  0  0  0
   -0.5177   57.5209   -9.1841 H   0  0  0  0  0  0
    1.6093   57.8695   -5.4003 H   0  0  0  0  0  0
    1.4228   59.1089   -6.4975 H   0  0  0  0  0  0
  1  2  2  0  0  0
  1  3  1  0  0  0
  1  4  1  0  0  0
  3 29  1  0  0  0
  4  5  2  0  0  0
  4 13  1  0  0  0
  5  6  1  0  0  0
  6  7  1  0  0  0
  6 28  1  0  0  0
  7  8  1  0  0  0
  7 12  1  0  0  0
  8  9  1  0  0  0
  8 30  1  0  0  0
  9 10  2  0  0  0
  9 11  1  0  0  0
 12 13  1  0  0  0
 12 14  1  0  0  0
 14 15  2  0  0  0
 14 16  1  0  0  0
 16 17  1  0  0  0
 16 25  1  0  0  0
 17 18  1  0  0  0
 18 19  1  0  0  0
 19 20  2  0  0  0
 19 21  1  0  0  0
 20 22  1  0  0  0
 21 23  2  0  0  0
 22 24  2  0  0  0
 23 24  1  0  0  0
 25 26  1  0  0  0
 26 27  1  0  0  0
 28 31  1  0  0  0
 28 32  1  0  0  0
M  END
>  <CHROM.0>
79.58990402,-177.98199380,-179.40101089,-106.34058169,-55.36759000,32.84620454
145.10346803,98.99616370,-112.13147158,151.56099003,178.13597326

>  <CHROM.1>
-13.94878927,170.03505212,58.58457098,57.33951530,-36.90495291,70.06952689
-129.56893294,171.36360485,92.77982027,61.34413294,-3.05154754,58.83538354
-8.46543693,0.61484040,-0.96641269,0.77198215

>  <FORMUL>
      DPC    C20 H27 N3 O5

>  <HET>
 DPC  A 466      28

>  <HETNAM>
     DPC 5-ACETYLAMINO-4-AMINO-6-(PHENETHYL-PROPYL-CARBAMOYL)-5,
   2 DPC 6-DIHYDRO-4H-PYRAN-2-CARBOXYLIC ACID

>  <Name>
DPC.pdb

>  <RI>
0

>  <Rbt.Current_Directory>
/home/malgorzata/Desktop/rDOCK_IFD/Wyniki/11_neuraminidase/IFD

>  <Rbt.Executable>
rbdock ($Id: //depot/dev/client3/rdock/2013.1/src/exe/rbdock.cxx#4 $)

>  <Rbt.Library>
libRbt.so (2013.1, Build901 2013/11/27)

>  <Rbt.Parameter_File>
/home/malgorzata/Desktop/rDock_2013.1_src/data/scripts/dock.prm

>  <Rbt.Receptor>
cavity.prm

>  <SCORE>
-32.5623

>  <SCORE.INTER>
-19.6407

>  <SCORE.INTER.CONST>
1

>  <SCORE.INTER.POLAR>
-2.55541

>  <SCORE.INTER.REPUL>
0.202849

>  <SCORE.INTER.ROT>
9

>  <SCORE.INTER.VDW>
-26.3665

>  <SCORE.INTER.norm>
-0.701453

>  <SCORE.INTRA>
1.44235

>  <SCORE.INTRA.DIHEDRAL>
0.624326

>  <SCORE.INTRA.DIHEDRAL.0>
7.68839

>  <SCORE.INTRA.POLAR>
0

>  <SCORE.INTRA.POLAR.0>
0

>  <SCORE.INTRA.REPUL>
0

>  <SCORE.INTRA.REPUL.0>
0

>  <SCORE.INTRA.VDW>
1.13019

>  <SCORE.INTRA.VDW.0>
-2.73227

>  <SCORE.INTRA.norm>
0.0515126

>  <SCORE.RESTR>
0

>  <SCORE.RESTR.CAVITY>
0

>  <SCORE.RESTR.norm>
0

>  <SCORE.SYSTEM>
-14.364

>  <SCORE.SYSTEM.CONST>
0

>  <SCORE.SYSTEM.DIHEDRAL>
4.01664

>  <SCORE.SYSTEM.POLAR>
-3.90386

>  <SCORE.SYSTEM.REPUL>
0.0219399

>  <SCORE.SYSTEM.VDW>
-3.2089

>  <SCORE.SYSTEM.norm>
-0.513001

>  <SCORE.heavy>
28

>  <SCORE.norm>
-1.16294

$$$$
DPC.pdb
  rDOCK(R)          3D
libRbt.so/2013.1/901 2013/11/27
 32 33  0  0  0  0  0  0  0  0999 V2000
    1.3322   57.5749   -7.3673 C   0  0  0  0  0  0
    0.9271   56.7039   -8.1283 O   0  0  0  0  0  0
    2.4987   57.5631   -6.9978 O   0  0  0  0  0  0
    0.4326   58.6879   -7.0144 C   0  0  0  0  0  0
    0.8860   59.7545   -6.3474 C   0  0  0  0  0  0
   -0.0246   60.9120   -6.0395 C   0  0  0  0  0  0
   -1.4963   60.5421   -6.2040 C   0  0  0  0  0  0
   -2.2880   61.7611   -6.3219 N   0  0  0  0  0  0
   -2.9312   62.3546   -5.3047 C   0  0  0  0  0  0
   -2.9312   61.8710   -4.1856 O   0  0  0  0  0  0
   -3.6246   63.6935   -5.6167 C   0  0  0  0  0  0
   -1.6627   59.7149   -7.4766 C   0  0  0  0  0  0
   -0.8217   58.5929   -7.4553 O   0  0  0  0  0  0
   -3.0593   59.1374   -7.5280 C   0  0  0  0  0  0
   -3.2252   58.5000   -6.8158 O   0  0  0  0  0  0
   -3.9541   59.6361   -8.3700 N   0  0  0  0  0  0
   -5.3192   59.0711   -8.2850 C   0  0  0  0  0  0
   -5.4773   57.7937   -9.1157 C   0  0  0  0  0  0
   -5.3871   58.1519  -10.5858 C   0  0  0  0  0  0
   -6.4843   58.7517  -11.2436 C   0  0  0  0  0  0
   -4.2283   57.8647  -11.3215 C   0  0  0  0  0  0
   -6.4328   59.0237  -12.6221 C   0  0  0  0  0  0
   -4.1753   58.1355  -12.6924 C   0  0  0  0  0  0
   -5.2740   58.7027  -13.3525 C   0  0  0  0  0  0
   -3.6491   60.6322   -9.3947 C   0  0  0  0  0  0
   -4.2940   61.9970   -9.0984 C   0  0  0  0  0  0
   -4.0784   63.0708  -10.1812 C   0  0  0  0  0  0
    0.2209   61.3573   -4.6937 N   0  0  0  0  0  0
    3.0684   56.8696   -7.2671 H   0  0  0  0  0  0
   -2.3553   62.1784   -7.2110 H   0  0  0  0  0  0
    0.0070   60.6027   -4.0416 H   0  0  0  0  0  0
   -0.3713   62.1621   -4.4885 H   0  0  0  0  0  0
  1  2  2  0  0  0
  1  3  1  0  0  0
  1  4  1  0  0  0
  3 29  1  0  0  0
  4  5  2  0  0  0
  4 13  1  0  0  0
  5  6  1  0  0  0
  6  7  1  0  0  0
  6 28  1  0  0  0
  7  8  1  0  0  0
  7 12  1  0  0  0
  8  9  1  0  0  0
  8 30  1  0  0  0
  9 10  2  0  0  0
  9 11  1  0  0  0
 12 13  1  0  0  0
 12 14  1  0  0  0
 14 15  2  0  0  0
 14 16  1  0  0  0
 16 17  1  0  0  0
 16 25  1  0  0  0
 17 18  1  0  0  0
 18 19  1  0  0  0
 19 20  2  0  0  0
 19 21  1  0  0  0
 20 22  1  0  0  0
 21 23  2  0  0  0
 22 24  2  0  0  0
 23 24  1  0  0  0
 25 26  1  0  0  0
 26 27  1  0  0  0
 28 31  1  0  0  0
 28 32  1  0  0  0
M  END
>  <CHROM.0>
172.90044663,62.47735004,-62.42739846,-125.38139054,-55.64280101,43.99525366
141.34501999,98.50760506,147.71879653,146.89549758,-153.95805352

>  <CHROM.1>
-2.63087906,-170.34706649,-61.87266545,-96.35051947,-65.10325360,-85.23494064
-111.45834973,-68.23478725,-76.94541986,-176.66186602,-2.59619976,59.72176672
-8.12316710,-0.62759702,0.53322929,-2.36252115

>  <FORMUL>
      DPC    C20 H27 N3 O5

>  <HET>
 DPC  A 466      28

>  <HETNAM>
     DPC 5-ACETYLAMINO-4-AMINO-6-(PHENETHYL-PROPYL-CARBAMOYL)-5,
   2 DPC 6-DIHYDRO-4H-PYRAN-2-CARBOXYLIC ACID

>  <Name>
DPC.pdb

>  <RI>
0

>  <Rbt.Current_Directory>
/home/malgorzata/Desktop/rDOCK_IFD/Wyniki/11_neuraminidase/IFD

>  <Rbt.Executable>
rbdock ($Id: //depot/dev/client3/rdock/2013.1/src/exe/rbdock.cxx#4 $)

>  <Rbt.Library>
libRbt.so (2013.1, Build901 2013/11/27)

>  <Rbt.Parameter_File>
/home/malgorzata/Desktop/rDock_2013.1_src/data/scripts/dock.prm

>  <Rbt.Receptor>
cavity.prm

>  <SCORE>
-26.8511

>  <SCORE.INTER>
-9.58461

>  <SCORE.INTER.CONST>
1

>  <SCORE.INTER.POLAR>
-1.4138

>  <SCORE.INTER.REPUL>
0.620402

>  <SCORE.INTER.ROT>
9

>  <SCORE.INTER.VDW>
-22.2797

>  <SCORE.INTER.norm>
-0.342307

>  <SCORE.INTRA>
-1.9522

>  <SCORE.INTRA.DIHEDRAL>
-0.572562

>  <SCORE.INTRA.DIHEDRAL.0>
7.68839

>  <SCORE.INTRA.POLAR>
0

>  <SCORE.INTRA.POLAR.0>
0

>  <SCORE.INTRA.REPUL>
0

>  <SCORE.INTRA.REPUL.0>
0

>  <SCORE.INTRA.VDW>
-1.66592

>  <SCORE.INTRA.VDW.0>
-2.73227

>  <SCORE.INTRA.norm>
-0.0697213

>  <SCORE.RESTR>
0

>  <SCORE.RESTR.CAVITY>
0

>  <SCORE.RESTR.norm>
0

>  <SCORE.SYSTEM>
-15.3143

>  <SCORE.SYSTEM.CONST>
0

>  <SCORE.SYSTEM.DIHEDRAL>
4.38621

>  <SCORE.SYSTEM.POLAR>
-4.27551

>  <SCORE.SYSTEM.REPUL>
0.00305202

>  <SCORE.SYSTEM.VDW>
-2.98595

>  <SCORE.SYSTEM.norm>
-0.54694

>  <SCORE.heavy>
28

>  <SCORE.norm>
-0.958969

$$$$
DPC.pdb
  rDOCK(R)          3D
libRbt.so/2013.1/901 2013/11/27
 32 33  0  0  0  0  0  0  0  0999 V2000
    0.3518   57.7467   -3.5016 C   0  0  0  0  0  0
    0.8497   57.9222   -2.3956 O   0  0  0  0  0  0
    0.3698   56.6316   -4.0050 O   0  0  0  0  0  0
   -0.3679   58.8610   -4.1441 C   0  0  0  0  0  0
   -0.3059   60.0998   -3.6444 C   0  0  0  0  0  0
   -0.9970   61.2430   -4.3368 C   0  0  0  0  0  0
   -2.0301   60.7579   -5.3504 C   0  0  0  0  0  0
   -2.3437   61.8424   -6.2736 N   0  0  0  0  0  0
   -1.4584   62.4221   -7.0986 C   0  0  0  0  0  0
   -0.2833   62.0975   -7.0977 O   0  0  0  0  0  0
   -2.0139   63.4787   -8.0712 C   0  0  0  0  0  0
   -1.4446   59.5875   -6.1371 C   0  0  0  0  0  0
   -1.0158   58.5703   -5.2722 O   0  0  0  0  0  0
   -2.5294   58.9415   -6.9692 C   0  0  0  0  0  0
   -3.4150   59.0782   -6.5976 O   0  0  0  0  0  0
   -2.2384   58.4247   -8.1552 N   0  0  0  0  0  0
   -3.3787   57.8978   -8.9374 C   0  0  0  0  0  0
   -4.4084   58.9808   -9.2744 C   0  0  0  0  0  0
   -4.8100   58.8382  -10.7291 C   0  0  0  0  0  0
   -3.8250   58.6876  -11.7307 C   0  0  0  0  0  0
   -6.1599   58.8860  -11.1058 C   0  0  0  0  0  0
   -4.1861   58.6239  -13.0881 C   0  0  0  0  0  0
   -6.5207   58.8218  -12.4553 C   0  0  0  0  0  0
   -5.5427   58.7028  -13.4522 C   0  0  0  0  0  0
   -0.8810   58.2878   -8.6787 C   0  0  0  0  0  0
   -0.0719   57.2083   -7.9395 C   0  0  0  0  0  0
   -0.6083   55.7724   -8.0888 C   0  0  0  0  0  0
   -1.6325   62.0744   -3.3497 N   0  0  0  0  0  0
   -0.0568   56.4811   -4.8257 H   0  0  0  0  0  0
   -3.2710   62.1726   -6.2928 H   0  0  0  0  0  0
   -2.2758   62.7181   -3.8105 H   0  0  0  0  0  0
   -0.9230   62.6059   -2.8451 H   0  0  0  0  0  0
  1  2  2  0  0  0
  1  3  1  0  0  0
  1  4  1  0  0  0
  3 29  1  0  0  0
  4  5  2  0  0  0
  4 13  1  0  0  0
  5  6  1  0  0  0
  6  7  1  0  0  0
  6 28  1  0  0  0
  7  8  1  0  0  0
  7 12  1  0  0  0
  8  9  1  0  0  0
  8 30  1  0  0  0
  9 10  2  0  0  0
  9 11  1  0  0  0
 12 13  1  0  0  0
 12 14  1  0  0  0
 14 15  2  0  0  0
 14 16  1  0  0  0
 16 17  1  0  0  0
 16 25  1  0  0  0
 17 18  1  0  0  0
 18 19  1  0  0  0
 19 20  2  0  0  0
 19 21  1  0  0  0
 20 22  1  0  0  0
 21 23  2  0  0  0
 22 24  2  0  0  0
 23 24  1  0  0  0
 25 26  1  0  0  0
 26 27  1  0  0  0
 28 31  1  0  0  0
 28 32  1  0  0  0
M  END
>  <CHROM.0>
-113.02388291,-179.01120687,-63.70955067,-101.68458173,64.36463136,127.75586028
-131.48614287,-82.17826807,-136.07012774,170.40437946,153.59338390

>  <CHROM.1>
176.15966405,10.57605100,-166.96620682,62.13957754,-25.59026679,61.48968001
70.51428548,135.29085556,-47.55056694,64.23627080,-2.10850440,59.30494663
-7.32425525,-0.40004700,0.98192043,-2.75106749

>  <FORMUL>
      DPC    C20 H27 N3 O5

>  <HET>
 DPC  A 466      28

>  <HETNAM>
     DPC 5-ACETYLAMINO-4-AMINO-6-(PHENETHYL-PROPYL-CARBAMOYL)-5,
   2 DPC 6-DIHYDRO-4H-PYRAN-2-CARBOXYLIC ACID

>  <Name>
DPC.pdb

>  <RI>
0

>  <Rbt.Current_Directory>
/home/malgorzata/Desktop/rDOCK_IFD/Wyniki/11_neuraminidase/IFD

>  <Rbt.Executable>
rbdock ($Id: //depot/dev/client3/rdock/2013.1/src/exe/rbdock.cxx#4 $)

>  <Rbt.Library>
libRbt.so (2013.1, Build901 2013/11/27)

>  <Rbt.Parameter_File>
/home/malgorzata/Desktop/rDock_2013.1_src/data/scripts/dock.prm

>  <Rbt.Receptor>
cavity.prm

>  <SCORE>
-23.2469

>  <SCORE.INTER>
-10.8545

>  <SCORE.INTER.CONST>
1

>  <SCORE.INTER.POLAR>
-1.66057

>  <SCORE.INTER.REPUL>
0.00282085

>  <SCORE.INTER.ROT>
9

>  <SCORE.INTER.VDW>
-19.6227

>  <SCORE.INTER.norm>
-0.387661

>  <SCORE.INTRA>
3.56509

>  <SCORE.INTRA.DIHEDRAL>
3.38741

>  <SCORE.INTRA.DIHEDRAL.0>
7.68839

>  <SCORE.INTRA.POLAR>
-0.0192984

>  <SCORE.INTRA.POLAR.0>
0

>  <SCORE.INTRA.REPUL>
0

>  <SCORE.INTRA.REPUL.0>
0

>  <SCORE.INTRA.VDW>
1.937

>  <SCORE.INTRA.VDW.0>
-2.73227

>  <SCORE.INTRA.norm>
0.127325

>  <SCORE.RESTR>
0

>  <SCORE.RESTR.CAVITY>
0

>  <SCORE.RESTR.norm>
0

>  <SCORE.SYSTEM>
-15.9575

>  <SCORE.SYSTEM.CONST>
0

>  <SCORE.SYSTEM.DIHEDRAL>
3.10069

>  <SCORE.SYSTEM.POLAR>
-4.21678

>  <SCORE.SYSTEM.VDW>
-3.1708

>  <SCORE.SYSTEM.norm>
-0.569911

>  <SCORE.heavy>
28

>  <SCORE.norm>
-0.830248

$$$$
DPC.pdb
  rDOCK(R)          3D
libRbt.so/2013.1/901 2013/11/27
 32 33  0  0  0  0  0  0  0  0999 V2000
   -1.9186   61.8054   -4.2747 C   0  0  0  0  0  0
   -1.4090   60.8155   -3.7623 O   0  0  0  0  0  0
   -1.7867   62.8996   -3.7430 O   0  0  0  0  0  0
   -2.5741   61.6706   -5.5879 C   0  0  0  0  0  0
   -3.0193   62.7446   -6.2486 C   0  0  0  0  0  0
   -3.6369   62.6054   -7.6135 C   0  0  0  0  0  0
   -4.0326   61.1630   -7.9184 C   0  0  0  0  0  0
   -4.2103   61.0074   -9.3575 N   0  0  0  0  0  0
   -3.2526   61.2227  -10.2723 C   0  0  0  0  0  0
   -2.1454   61.6191   -9.9506 O   0  0  0  0  0  0
   -3.6123   60.8995  -11.7341 C   0  0  0  0  0  0
   -2.9172   60.2311   -7.4504 C   0  0  0  0  0  0
   -2.6309   60.4385   -6.0933 O   0  0  0  0  0  0
   -3.3911   58.7969   -7.5201 C   0  0  0  0  0  0
   -4.3351   58.7061   -7.3156 O   0  0  0  0  0  0
   -2.5886   57.8540   -7.9950 N   0  0  0  0  0  0
   -3.1693   56.4979   -8.1121 C   0  0  0  0  0  0
   -3.8478   56.2659   -9.4658 C   0  0  0  0  0  0
   -2.7906   56.2821  -10.5519 C   0  0  0  0  0  0
   -2.7414   57.3416  -11.4853 C   0  0  0  0  0  0
   -1.8680   55.2322  -10.6670 C   0  0  0  0  0  0
   -1.8078   57.3288  -12.5365 C   0  0  0  0  0  0
   -0.9383   55.2186  -11.7115 C   0  0  0  0  0  0
   -0.9081   56.2538  -12.6557 C   0  0  0  0  0  0
   -1.1819   58.0667   -8.3280 C   0  0  0  0  0  0
   -0.2738   58.0437   -7.0866 C   0  0  0  0  0  0
    1.2149   58.3283   -7.3601 C   0  0  0  0  0  0
   -4.7929   63.4578   -7.6948 N   0  0  0  0  0  0
   -2.1372   63.6653   -4.1539 H   0  0  0  0  0  0
   -5.0960   60.7242   -9.6808 H   0  0  0  0  0  0
   -4.4939   64.4256   -7.8151 H   0  0  0  0  0  0
   -5.3378   63.3745   -6.8366 H   0  0  0  0  0  0
  1  2  2  0  0  0
  1  3  1  0  0  0
  1  4  1  0  0  0
  3 29  1  0  0  0
  4  5  2  0  0  0
  4 13  1  0  0  0
  5  6  1  0  0  0
  6  7  1  0  0  0
  6 28  1  0  0  0
  7  8  1  0  0  0
  7 12  1  0  0  0
  8  9  1  0  0  0
  8 30  1  0  0  0
  9 10  2  0  0  0
  9 11  1  0  0  0
 12 13  1  0  0  0
 12 14  1  0  0  0
 14 15  2  0  0  0
 14 16  1  0  0  0
 16 17  1  0  0  0
 16 25  1  0  0  0
 17 18  1  0  0  0
 18 19  1  0  0  0
 19 20  2  0  0  0
 19 21  1  0  0  0
 20 22  1  0  0  0
 21 23  2  0  0  0
 22 24  2  0  0  0
 23 24  1  0  0  0
 25 26  1  0  0  0
 26 27  1  0  0  0
 28 31  1  0  0  0
 28 32  1  0  0  0
M  END
>  <CHROM.0>
-105.94831878,178.89287090,65.32278379,177.06840168,-56.36449894,133.86738775
-136.18129782,97.57793065,84.75084495,58.07049371,173.30251401

>  <CHROM.1>
176.88021446,-172.94794591,76.38279079,60.03891390,-34.35471326,89.09113424
79.80244258,66.39642157,-110.92075277,-177.23209476,-2.52497783,59.46441284
-8.29762426,-1.74237872,1.00069073,-2.22078789

>  <FORMUL>
      DPC    C20 H27 N3 O5

>  <HET>
 DPC  A 466      28

>  <HETNAM>
     DPC 5-ACETYLAMINO-4-AMINO-6-(PHENETHYL-PROPYL-CARBAMOYL)-5,
   2 DPC 6-DIHYDRO-4H-PYRAN-2-CARBOXYLIC ACID

>  <Name>
DPC.pdb

>  <RI>
0

>  <Rbt.Current_Directory>
/home/malgorzata/Desktop/rDOCK_IFD/Wyniki/11_neuraminidase/IFD

>  <Rbt.Executable>
rbdock ($Id: //depot/dev/client3/rdock/2013.1/src/exe/rbdock.cxx#4 $)

>  <Rbt.Library>
libRbt.so (2013.1, Build901 2013/11/27)

>  <Rbt.Parameter_File>
/home/malgorzata/Desktop/rDock_2013.1_src/data/scripts/dock.prm

>  <Rbt.Receptor>
cavity.prm

>  <SCORE>
-25.9949

>  <SCORE.INTER>
-11.8685

>  <SCORE.INTER.CONST>
1

>  <SCORE.INTER.POLAR>
-2.15711

>  <SCORE.INTER.REPUL>
0

>  <SCORE.INTER.ROT>
9

>  <SCORE.INTER.VDW>
-18.9343

>  <SCORE.INTER.norm>
-0.423875

>  <SCORE.INTRA>
-0.659501

>  <SCORE.INTRA.DIHEDRAL>
-0.742757

>  <SCORE.INTRA.DIHEDRAL.0>
7.68839

>  <SCORE.INTRA.POLAR>
0

>  <SCORE.INTRA.POLAR.0>
0

>  <SCORE.INTRA.REPUL>
0

>  <SCORE.INTRA.REPUL.0>
0

>  <SCORE.INTRA.VDW>
-0.288123

>  <SCORE.INTRA.VDW.0>
-2.73227

>  <SCORE.INTRA.norm>
-0.0235536

>  <SCORE.RESTR>
0

>  <SCORE.RESTR.CAVITY>
0

>  <SCORE.RESTR.norm>
0

>  <SCORE.SYSTEM>
-13.4669

>  <SCORE.SYSTEM.CONST>
0

>  <SCORE.SYSTEM.DIHEDRAL>
6.46453

>  <SCORE.SYSTEM.POLAR>
-3.80017

>  <SCORE.SYSTEM.VDW>
-3.77854

>  <SCORE.SYSTEM.norm>
-0.48096

>  <SCORE.heavy>
28

>  <SCORE.norm>
-0.928388

$$$$
DPC.pdb
  rDOCK(R)          3D
libRbt.so/2013.1/901 2013/11/27
 32 33  0  0  0  0  0  0  0  0999 V2000
    0.4079   57.7973   -3.2502 C   0  0  0  0  0  0
    0.9266   58.1190   -2.1875 O   0  0  0  0  0  0
    0.4102   56.6234   -3.5956 O   0  0  0  0  0  0
   -0.3165   58.8187   -4.0277 C   0  0  0  0  0  0
   -0.3692   60.0893   -3.6144 C   0  0  0  0  0  0
   -1.0626   61.1379   -4.4412 C   0  0  0  0  0  0
   -1.9747   60.5221   -5.4990 C   0  0  0  0  0  0
   -2.2692   61.5209   -6.5200 N   0  0  0  0  0  0
   -1.3625   62.0445   -7.3592 C   0  0  0  0  0  0
   -0.1839   61.7404   -7.2900 O   0  0  0  0  0  0
   -1.8966   63.0074   -8.4354 C   0  0  0  0  0  0
   -1.2570   59.3416   -6.1493 C   0  0  0  0  0  0
   -0.8466   58.4132   -5.1815 O   0  0  0  0  0  0
   -2.2268   58.5743   -7.0194 C   0  0  0  0  0  0
   -3.1474   58.6772   -6.7312 O   0  0  0  0  0  0
   -1.8058   58.0019   -8.1390 N   0  0  0  0  0  0
   -2.8422   57.3529   -8.9724 C   0  0  0  0  0  0
   -2.8175   55.8257   -8.8541 C   0  0  0  0  0  0
   -4.2257   55.2977   -9.0430 C   0  0  0  0  0  0
   -5.3404   56.1106   -8.7381 C   0  0  0  0  0  0
   -4.4434   53.9869   -9.4911 C   0  0  0  0  0  0
   -6.6479   55.6048   -8.8453 C   0  0  0  0  0  0
   -5.7433   53.4827   -9.5990 C   0  0  0  0  0  0
   -6.8488   54.2780   -9.2681 C   0  0  0  0  0  0
   -0.4031   57.9196   -8.5399 C   0  0  0  0  0  0
    0.3219   56.7229   -7.9006 C   0  0  0  0  0  0
    0.2647   55.4147   -8.7114 C   0  0  0  0  0  0
   -1.8278   61.9910   -3.5717 N   0  0  0  0  0  0
    0.6790   55.9583   -2.9928 H   0  0  0  0  0  0
   -3.1995   61.8332   -6.5992 H   0  0  0  0  0  0
   -2.3507   62.6652   -4.1307 H   0  0  0  0  0  0
   -1.1976   62.4876   -2.9418 H   0  0  0  0  0  0
  1  2  2  0  0  0
  1  3  1  0  0  0
  1  4  1  0  0  0
  3 29  1  0  0  0
  4  5  2  0  0  0
  4 13  1  0  0  0
  5  6  1  0  0  0
  6  7  1  0  0  0
  6 28  1  0  0  0
  7  8  1  0  0  0
  7 12  1  0  0  0
  8  9  1  0  0  0
  8 30  1  0  0  0
  9 10  2  0  0  0
  9 11  1  0  0  0
 12 13  1  0  0  0
 12 14  1  0  0  0
 14 15  2  0  0  0
 14 16  1  0  0  0
 16 17  1  0  0  0
 16 25  1  0  0  0
 17 18  1  0  0  0
 18 19  1  0  0  0
 19 20  2  0  0  0
 19 21  1  0  0  0
 20 22  1  0  0  0
 21 23  2  0  0  0
 22 24  2  0  0  0
 23 24  1  0  0  0
 25 26  1  0  0  0
 26 27  1  0  0  0
 28 31  1  0  0  0
 28 32  1  0  0  0
M  END
>  <CHROM.0>
119.99194731,-179.13038113,-65.23308479,157.65874877,66.49188236,-32.47412619
-61.76112509,1.82830952,35.56143132,172.09427103,136.44600946

>  <CHROM.1>
9.96887748,2.52832816,-176.20019688,66.06003852,-25.73640256,-104.03989349
84.01386799,149.07378106,-26.19251189,89.61577514,-1.97881514,58.21754935
-6.76265607,-0.69481029,0.83819932,3.11445723

>  <FORMUL>
      DPC    C20 H27 N3 O5

>  <HET>
 DPC  A 466      28

>  <HETNAM>
     DPC 5-ACETYLAMINO-4-AMINO-6-(PHENETHYL-PROPYL-CARBAMOYL)-5,
   2 DPC 6-DIHYDRO-4H-PYRAN-2-CARBOXYLIC ACID

>  <Name>
DPC.pdb

>  <RI>
0

>  <Rbt.Current_Directory>
/home/malgorzata/Desktop/rDOCK_IFD/Wyniki/11_neuraminidase/IFD

>  <Rbt.Executable>
rbdock ($Id: //depot/dev/client3/rdock/2013.1/src/exe/rbdock.cxx#4 $)

>  <Rbt.Library>
libRbt.so (2013.1, Build901 2013/11/27)

>  <Rbt.Parameter_File>
/home/malgorzata/Desktop/rDock_2013.1_src/data/scripts/dock.prm

>  <Rbt.Receptor>
cavity.prm

>  <SCORE>
-24.1419

>  <SCORE.INTER>
-15.4724

>  <SCORE.INTER.CONST>
1

>  <SCORE.INTER.POLAR>
-2.35311

>  <SCORE.INTER.REPUL>
0

>  <SCORE.INTER.ROT>
9

>  <SCORE.INTER.VDW>
-21.8718

>  <SCORE.INTER.norm>
-0.552586

>  <SCORE.INTRA>
5.84464

>  <SCORE.INTRA.DIHEDRAL>
4.91396

>  <SCORE.INTRA.DIHEDRAL.0>
7.68839

>  <SCORE.INTRA.POLAR>
0

>  <SCORE.INTRA.POLAR.0>
0

>  <SCORE.INTRA.REPUL>
0

>  <SCORE.INTRA.REPUL.0>
0

>  <SCORE.INTRA.VDW>
3.38765

>  <SCORE.INTRA.VDW.0>
-2.73227

>  <SCORE.INTRA.norm>
0.208737

>  <SCORE.RESTR>
0

>  <SCORE.RESTR.CAVITY>
0

>  <SCORE.RESTR.norm>
0

>  <SCORE.SYSTEM>
-14.5142

>  <SCORE.SYSTEM.CONST>
0

>  <SCORE.SYSTEM.DIHEDRAL>
3.2318

>  <SCORE.SYSTEM.POLAR>
-4.18095

>  <SCORE.SYSTEM.VDW>
-1.91484

>  <SCORE.SYSTEM.norm>
-0.518363

>  <SCORE.heavy>
28

>  <SCORE.norm>
-0.862212

$$$$
DPC.pdb
  rDOCK(R)          3D
libRbt.so/2013.1/901 2013/11/27
 32 33  0  0  0  0  0  0  0  0999 V2000
    2.8539   57.8729   -7.9793 C   0  0  0  0  0  0
    3.5793   56.8859   -7.9393 O   0  0  0  0  0  0
    3.3489   58.9847   -8.1067 O   0  0  0  0  0  0
    1.3924   57.6831   -7.9976 C   0  0  0  0  0  0
    0.8525   56.4756   -7.8005 C   0  0  0  0  0  0
   -0.6412   56.2987   -7.7647 C   0  0  0  0  0  0
   -1.3744   57.5005   -8.3545 C   0  0  0  0  0  0
   -2.7643   57.4794   -7.9135 N   0  0  0  0  0  0
   -3.8078   57.1603   -8.6944 C   0  0  0  0  0  0
   -3.6599   56.9011   -9.8765 O   0  0  0  0  0  0
   -5.1852   57.0949   -8.0093 C   0  0  0  0  0  0
   -0.7124   58.7824   -7.8545 C   0  0  0  0  0  0
    0.6580   58.7846   -8.1525 O   0  0  0  0  0  0
   -1.2644   59.9682   -8.6130 C   0  0  0  0  0  0
   -1.0415   59.9432   -9.5568 O   0  0  0  0  0  0
   -2.1035   60.8054   -8.0184 N   0  0  0  0  0  0
   -2.6638   61.8821   -8.8649 C   0  0  0  0  0  0
   -4.0087   61.4969   -9.4890 C   0  0  0  0  0  0
   -4.4389   62.5955  -10.4406 C   0  0  0  0  0  0
   -5.3013   63.6247  -10.0007 C   0  0  0  0  0  0
   -4.0152   62.5897  -11.7774 C   0  0  0  0  0  0
   -5.7594   64.6080  -10.8951 C   0  0  0  0  0  0
   -4.4692   63.5676  -12.6679 C   0  0  0  0  0  0
   -5.3486   64.5716  -12.2402 C   0  0  0  0  0  0
   -2.4338   60.7619   -6.5957 C   0  0  0  0  0  0
   -1.2351   61.1247   -5.7025 C   0  0  0  0  0  0
   -1.4761   60.9680   -4.1894 C   0  0  0  0  0  0
   -0.9903   55.1072   -8.4914 N   0  0  0  0  0  0
    2.7999   59.7440   -8.1124 H   0  0  0  0  0  0
   -2.9502   57.7161   -6.9762 H   0  0  0  0  0  0
   -2.0034   54.9893   -8.4845 H   0  0  0  0  0  0
   -0.5509   54.2991   -8.0505 H   0  0  0  0  0  0
  1  2  2  0  0  0
  1  3  1  0  0  0
  1  4  1  0  0  0
  3 29  1  0  0  0
  4  5  2  0  0  0
  4 13  1  0  0  0
  5  6  1  0  0  0
  6  7  1  0  0  0
  6 28  1  0  0  0
  7  8  1  0  0  0
  7 12  1  0  0  0
  8  9  1  0  0  0
  8 30  1  0  0  0
  9 10  2  0  0  0
  9 11  1  0  0  0
 12 13  1  0  0  0
 12 14  1  0  0  0
 14 15  2  0  0  0
 14 16  1  0  0  0
 16 17  1  0  0  0
 16 25  1  0  0  0
 17 18  1  0  0  0
 18 19  1  0  0  0
 19 20  2  0  0  0
 19 21  1  0  0  0
 20 22  1  0  0  0
 21 23  2  0  0  0
 22 24  2  0  0  0
 23 24  1  0  0  0
 25 26  1  0  0  0
 26 27  1  0  0  0
 28 31  1  0  0  0
 28 32  1  0  0  0
M  END
>  <CHROM.0>
167.17052031,-174.68947328,-177.18649769,-98.81983518,-54.58714744,-33.47073443
145.35562629,0.14224312,84.01137929,-174.21516996,174.07874221

>  <CHROM.1>
-178.19241199,8.58331202,-179.05915496,-106.74924555,-64.85197273,93.10966645
67.06154382,-174.51075923,-94.40494057,-174.41203708,-1.78601642,59.61618147
-8.66320958,-0.79518172,-0.33106970,-0.16517780

>  <FORMUL>
      DPC    C20 H27 N3 O5

>  <HET>
 DPC  A 466      28

>  <HETNAM>
     DPC 5-ACETYLAMINO-4-AMINO-6-(PHENETHYL-PROPYL-CARBAMOYL)-5,
   2 DPC 6-DIHYDRO-4H-PYRAN-2-CARBOXYLIC ACID

>  <Name>
DPC.pdb

>  <RI>
0

>  <Rbt.Current_Directory>
/home/malgorzata/Desktop/rDOCK_IFD/Wyniki/11_neuraminidase/IFD

>  <Rbt.Executable>
rbdock ($Id: //depot/dev/client3/rdock/2013.1/src/exe/rbdock.cxx#4 $)

>  <Rbt.Library>
libRbt.so (2013.1, Build901 2013/11/27)

>  <Rbt.Parameter_File>
/home/malgorzata/Desktop/rDock_2013.1_src/data/scripts/dock.prm

>  <Rbt.Receptor>
cavity.prm

>  <SCORE>
-23.6773

>  <SCORE.INTER>
-7.49058

>  <SCORE.INTER.CONST>
1

>  <SCORE.INTER.POLAR>
-1.7037

>  <SCORE.INTER.REPUL>
0.00990957

>  <SCORE.INTER.ROT>
9

>  <SCORE.INTER.VDW>
-16.1475

>  <SCORE.INTER.norm>
-0.267521

>  <SCORE.INTRA>
-0.904228

>  <SCORE.INTRA.DIHEDRAL>
-0.428808

>  <SCORE.INTRA.DIHEDRAL.0>
7.68839

>  <SCORE.INTRA.POLAR>
-0.0152117

>  <SCORE.INTRA.POLAR.0>
0

>  <SCORE.INTRA.REPUL>
0

>  <SCORE.INTRA.REPUL.0>
0

>  <SCORE.INTRA.VDW>
-0.638104

>  <SCORE.INTRA.VDW.0>
-2.73227

>  <SCORE.INTRA.norm>
-0.0322938

>  <SCORE.RESTR>
0.0244805

>  <SCORE.RESTR.CAVITY>
0.0244805

>  <SCORE.RESTR.norm>
0.000874304

>  <SCORE.SYSTEM>
-15.307

>  <SCORE.SYSTEM.CONST>
0

>  <SCORE.SYSTEM.DIHEDRAL>
3.16967

>  <SCORE.SYSTEM.POLAR>
-3.85154

>  <SCORE.SYSTEM.VDW>
-3.79661

>  <SCORE.SYSTEM.norm>
-0.546679

>  <SCORE.heavy>
28

>  <SCORE.norm>
-0.845619

$$$$
DPC.pdb
  rDOCK(R)          3D
libRbt.so/2013.1/901 2013/11/27
 32 33  0  0  0  0  0  0  0  0999 V2000
   -1.8847   61.8634   -4.0988 C   0  0  0  0  0  0
   -1.3156   60.8733   -3.6542 O   0  0  0  0  0  0
   -1.7701   62.9379   -3.5247 O   0  0  0  0  0  0
   -2.5936   61.7597   -5.3869 C   0  0  0  0  0  0
   -3.1819   62.8273   -5.9368 C   0  0  0  0  0  0
   -3.8555   62.7272   -7.2785 C   0  0  0  0  0  0
   -4.1172   61.2783   -7.6810 C   0  0  0  0  0  0
   -4.3563   61.2144   -9.1181 N   0  0  0  0  0  0
   -3.4409   61.4984  -10.0573 C   0  0  0  0  0  0
   -2.3238   61.8845   -9.7582 O   0  0  0  0  0  0
   -3.8614   61.2669  -11.5202 C   0  0  0  0  0  0
   -2.8883   60.4376   -7.3424 C   0  0  0  0  0  0
   -2.5512   60.5706   -5.9876 O   0  0  0  0  0  0
   -3.2158   58.9705   -7.5064 C   0  0  0  0  0  0
   -4.0530   58.7260   -7.0819 O   0  0  0  0  0  0
   -2.4836   58.2119   -8.3107 N   0  0  0  0  0  0
   -2.9340   56.8126   -8.4805 C   0  0  0  0  0  0
   -3.5301   56.5531   -9.8676 C   0  0  0  0  0  0
   -2.4024   56.4714  -10.8771 C   0  0  0  0  0  0
   -2.4571   57.2237  -12.0718 C   0  0  0  0  0  0
   -1.3058   55.6254  -10.6569 C   0  0  0  0  0  0
   -1.4486   57.1007  -13.0438 C   0  0  0  0  0  0
   -0.3016   55.5028  -11.6222 C   0  0  0  0  0  0
   -0.3698   56.2256  -12.8210 C   0  0  0  0  0  0
   -1.2513   58.6558   -8.9585 C   0  0  0  0  0  0
   -0.0936   58.8328   -7.9612 C   0  0  0  0  0  0
    0.5290   57.5229   -7.4431 C   0  0  0  0  0  0
   -5.0955   63.4553   -7.2366 N   0  0  0  0  0  0
   -2.1310   63.7139   -3.9065 H   0  0  0  0  0  0
   -5.2530   60.9435   -9.4209 H   0  0  0  0  0  0
   -4.9027   64.4567   -7.2600 H   0  0  0  0  0  0
   -5.5960   63.2254   -6.3781 H   0  0  0  0  0  0
  1  2  2  0  0  0
  1  3  1  0  0  0
  1  4  1  0  0  0
  3 29  1  0  0  0
  4  5  2  0  0  0
  4 13  1  0  0  0
  5  6  1  0  0  0
  6  7  1  0  0  0
  6 28  1  0  0  0
  7  8  1  0  0  0
  7 12  1  0  0  0
  8  9  1  0  0  0
  8 30  1  0  0  0
  9 10  2  0  0  0
  9 11  1  0  0  0
 12 13  1  0  0  0
 12 14  1  0  0  0
 14 15  2  0  0  0
 14 16  1  0  0  0
 16 17  1  0  0  0
 16 25  1  0  0  0
 17 18  1  0  0  0
 18 19  1  0  0  0
 19 20  2  0  0  0
 19 21  1  0  0  0
 20 22  1  0  0  0
 21 23  2  0  0  0
 22 24  2  0  0  0
 23 24  1  0  0  0
 25 26  1  0  0  0
 26 27  1  0  0  0
 28 31  1  0  0  0
 28 32  1  0  0  0
M  END
>  <CHROM.0>
-100.86424959,-179.73526826,-63.34110302,171.19507369,-56.01495600,141.22009673
140.12454740,-86.46200739,91.22236605,84.39197904,144.88968572

>  <CHROM.1>
173.84569243,-177.24653261,74.49499175,65.60676133,-47.48301675,108.43500732
70.30601490,75.26104333,-130.22530720,74.12675245,-2.46258180,59.61249692
-8.31854058,-1.84569608,0.92683936,-2.10870268

>  <FORMUL>
      DPC    C20 H27 N3 O5

>  <HET>
 DPC  A 466      28

>  <HETNAM>
     DPC 5-ACETYLAMINO-4-AMINO-6-(PHENETHYL-PROPYL-CARBAMOYL)-5,
   2 DPC 6-DIHYDRO-4H-PYRAN-2-CARBOXYLIC ACID

>  <Name>
DPC.pdb

>  <RI>
0

>  <Rbt.Current_Directory>
/home/malgorzata/Desktop/rDOCK_IFD/Wyniki/11_neuraminidase/IFD

>  <Rbt.Executable>
rbdock ($Id: //depot/dev/client3/rdock/2013.1/src/exe/rbdock.cxx#4 $)

>  <Rbt.Library>
libRbt.so (2013.1, Build901 2013/11/27)

>  <Rbt.Parameter_File>
/home/malgorzata/Desktop/rDock_2013.1_src/data/scripts/dock.prm

>  <Rbt.Receptor>
cavity.prm

>  <SCORE>
-27.281

>  <SCORE.INTER>
-12.3482

>  <SCORE.INTER.CONST>
1

>  <SCORE.INTER.POLAR>
-2.01498

>  <SCORE.INTER.REPUL>
0.00174199

>  <SCORE.INTER.ROT>
9

>  <SCORE.INTER.VDW>
-19.9059

>  <SCORE.INTER.norm>
-0.441007

>  <SCORE.INTRA>
0.47844

>  <SCORE.INTRA.DIHEDRAL>
1.05053

>  <SCORE.INTRA.DIHEDRAL.0>
7.68839

>  <SCORE.INTRA.POLAR>
0

>  <SCORE.INTRA.POLAR.0>
0

>  <SCORE.INTRA.REPUL>
0

>  <SCORE.INTRA.REPUL.0>
0

>  <SCORE.INTRA.VDW>
-0.0468227

>  <SCORE.INTRA.VDW.0>
-2.73227

>  <SCORE.INTRA.norm>
0.0170872

>  <SCORE.RESTR>
0

>  <SCORE.RESTR.CAVITY>
0

>  <SCORE.RESTR.norm>
0

>  <SCORE.SYSTEM>
-15.4112

>  <SCORE.SYSTEM.CONST>
0

>  <SCORE.SYSTEM.DIHEDRAL>
7.68599

>  <SCORE.SYSTEM.POLAR>
-4.22507

>  <SCORE.SYSTEM.REPUL>
0.00124753

>  <SCORE.SYSTEM.VDW>
-4.89524

>  <SCORE.SYSTEM.norm>
-0.550401

>  <SCORE.heavy>
28

>  <SCORE.norm>
-0.974321

$$$$
