DPC.pdb
  rDOCK(R)          3D
libRbt.so/2013.1/901 2013/11/27
 32 33  0  0  0  0  0  0  0  0999 V2000
   -3.3886   58.3059   -5.6768 C   0  0  0  0  0  0
   -3.3299   57.8798   -4.5292 O   0  0  0  0  0  0
   -3.1476   57.5579   -6.6147 O   0  0  0  0  0  0
   -3.8705   59.6804   -5.9029 C   0  0  0  0  0  0
   -4.0101   60.5370   -4.8856 C   0  0  0  0  0  0
   -4.4488   61.9553   -5.1304 C   0  0  0  0  0  0
   -5.0631   62.1334   -6.5163 C   0  0  0  0  0  0
   -5.0669   63.5502   -6.8618 N   0  0  0  0  0  0
   -5.9601   64.1349   -7.6748 C   0  0  0  0  0  0
   -6.8304   63.4875   -8.2315 O   0  0  0  0  0  0
   -5.8542   65.6633   -7.8275 C   0  0  0  0  0  0
   -4.2185   61.3739   -7.5368 C   0  0  0  0  0  0
   -4.0880   60.0262   -7.1717 O   0  0  0  0  0  0
   -4.9397   61.3358   -8.8652 C   0  0  0  0  0  0
   -5.7828   60.8584   -8.8178 O   0  0  0  0  0  0
   -4.4928   62.0560   -9.8851 N   0  0  0  0  0  0
   -5.3142   62.0287  -11.1156 C   0  0  0  0  0  0
   -4.8395   60.9678  -12.1136 C   0  0  0  0  0  0
   -4.8455   59.6153  -11.4294 C   0  0  0  0  0  0
   -6.0392   58.8645  -11.3413 C   0  0  0  0  0  0
   -3.6771   59.1041  -10.8462 C   0  0  0  0  0  0
   -6.0678   57.6413  -10.6485 C   0  0  0  0  0  0
   -3.7038   57.8873  -10.1577 C   0  0  0  0  0  0
   -4.8940   57.1560  -10.0436 C   0  0  0  0  0  0
   -3.2307   62.7925   -9.8774 C   0  0  0  0  0  0
   -2.0067   61.8618   -9.9199 C   0  0  0  0  0  0
   -0.6419   62.5749   -9.8899 C   0  0  0  0  0  0
   -5.4012   62.3329   -4.1205 N   0  0  0  0  0  0
   -3.2390   57.8659   -7.4949 H   0  0  0  0  0  0
   -4.3642   64.1181   -6.4707 H   0  0  0  0  0  0
   -5.5719   63.3372   -4.1726 H   0  0  0  0  0  0
   -5.0312   62.0982   -3.1994 H   0  0  0  0  0  0
  1  2  2  0  0  0
  1  3  1  0  0  0
  1  4  1  0  0  0
  3 29  1  0  0  0
  4  5  2  0  0  0
  4 13  1  0  0  0
  5  6  1  0  0  0
  6  7  1  0  0  0
  6 28  1  0  0  0
  7  8  1  0  0  0
  7 12  1  0  0  0
  8  9  1  0  0  0
  8 30  1  0  0  0
  9 10  2  0  0  0
  9 11  1  0  0  0
 12 13  1  0  0  0
 12 14  1  0  0  0
 14 15  2  0  0  0
 14 16  1  0  0  0
 16 17  1  0  0  0
 16 25  1  0  0  0
 17 18  1  0  0  0
 18 19  1  0  0  0
 19 20  2  0  0  0
 19 21  1  0  0  0
 20 22  1  0  0  0
 21 23  2  0  0  0
 22 24  2  0  0  0
 23 24  1  0  0  0
 25 26  1  0  0  0
 26 27  1  0  0  0
 28 31  1  0  0  0
 28 32  1  0  0  0
M  END
>  <CHROM.0>
-76.98694552,179.25286678,177.31627785,-91.50634948,46.70526807,-132.10621833
-168.39527025,18.01427810,2.65497340,127.00504686

>  <CHROM.1>
176.49888573,12.17181137,169.54308727,-151.33129446,-62.79679959,-94.15802186
70.65021846,56.70058269,83.13627967,-179.00729996,-4.46011985,60.87337684
-8.28953795,-1.86945958,1.35833216,-1.86314323

>  <FORMUL>
      DPC    C20 H27 N3 O5

>  <HET>
 DPC  A 466      28

>  <HETNAM>
     DPC 5-ACETYLAMINO-4-AMINO-6-(PHENETHYL-PROPYL-CARBAMOYL)-5,
   2 DPC 6-DIHYDRO-4H-PYRAN-2-CARBOXYLIC ACID

>  <Name>
DPC.pdb

>  <RI>
0

>  <Rbt.Current_Directory>
/home/malgorzata/Desktop/rDOCK_IFD/Wyniki/11_neuraminidase/IFD

>  <Rbt.Executable>
rbdock ($Id: //depot/dev/client3/rdock/2013.1/src/exe/rbdock.cxx#4 $)

>  <Rbt.Library>
libRbt.so (2013.1, Build901 2013/11/27)

>  <Rbt.Parameter_File>
/home/malgorzata/Desktop/rDock_2013.1_src/data/scripts/hard_docking.prm

>  <Rbt.Receptor>
cavity.prm

>  <SCORE>
-11.0203

>  <SCORE.INTER>
-2.8195

>  <SCORE.INTER.CONST>
1

>  <SCORE.INTER.POLAR>
-1.56785

>  <SCORE.INTER.REPUL>
0.0261745

>  <SCORE.INTER.ROT>
9

>  <SCORE.INTER.VDW>
-12.0197

>  <SCORE.INTER.norm>
-0.100697

>  <SCORE.INTRA>
-3.68828

>  <SCORE.INTRA.DIHEDRAL>
-0.576627

>  <SCORE.INTRA.DIHEDRAL.0>
7.68839

>  <SCORE.INTRA.POLAR>
-0.0183225

>  <SCORE.INTRA.POLAR.0>
0

>  <SCORE.INTRA.REPUL>
0

>  <SCORE.INTRA.REPUL.0>
0

>  <SCORE.INTRA.VDW>
-3.33767

>  <SCORE.INTRA.VDW.0>
-2.73227

>  <SCORE.INTRA.norm>
-0.131724

>  <SCORE.RESTR>
1.61545

>  <SCORE.RESTR.CAVITY>
1.61545

>  <SCORE.RESTR.norm>
0.0576945

>  <SCORE.SYSTEM>
-6.12801

>  <SCORE.SYSTEM.CONST>
0

>  <SCORE.SYSTEM.DIHEDRAL>
2.8621

>  <SCORE.SYSTEM.POLAR>
-0.582943

>  <SCORE.SYSTEM.REPUL>
0.0697229

>  <SCORE.SYSTEM.VDW>
-5.92567

>  <SCORE.SYSTEM.norm>
-0.218858

>  <SCORE.heavy>
28

>  <SCORE.norm>
-0.393584

$$$$
DPC.pdb
  rDOCK(R)          3D
libRbt.so/2013.1/901 2013/11/27
 32 33  0  0  0  0  0  0  0  0999 V2000
    0.4319   63.5654   -9.6335 C   0  0  0  0  0  0
   -0.1662   64.3649  -10.3443 O   0  0  0  0  0  0
    1.6087   63.7590   -9.3599 O   0  0  0  0  0  0
   -0.3190   62.4534   -9.0236 C   0  0  0  0  0  0
    0.1979   61.7459   -8.0135 C   0  0  0  0  0  0
   -0.5964   60.6486   -7.3586 C   0  0  0  0  0  0
   -1.7883   60.2185   -8.2097 C   0  0  0  0  0  0
   -2.7407   59.4972   -7.3734 N   0  0  0  0  0  0
   -3.0133   58.1879   -7.4826 C   0  0  0  0  0  0
   -2.4963   57.5022   -8.3479 O   0  0  0  0  0  0
   -3.9719   57.5950   -6.4337 C   0  0  0  0  0  0
   -2.4675   61.4615   -8.7800 C   0  0  0  0  0  0
   -1.5503   62.2486   -9.4914 O   0  0  0  0  0  0
   -3.4923   61.0513   -9.8134 C   0  0  0  0  0  0
   -3.1924   60.3089  -10.3611 O   0  0  0  0  0  0
   -4.7103   61.5749   -9.7859 N   0  0  0  0  0  0
   -5.6729   61.0459  -10.7774 C   0  0  0  0  0  0
   -6.1061   59.6100  -10.4652 C   0  0  0  0  0  0
   -5.4478   58.6736  -11.4589 C   0  0  0  0  0  0
   -4.3182   57.9126  -11.0832 C   0  0  0  0  0  0
   -5.9285   58.5725  -12.7724 C   0  0  0  0  0  0
   -3.6611   57.0943  -12.0189 C   0  0  0  0  0  0
   -5.2766   57.7583  -13.7038 C   0  0  0  0  0  0
   -4.1379   57.0263  -13.3407 C   0  0  0  0  0  0
   -5.1133   62.6660   -8.9015 C   0  0  0  0  0  0
   -5.2435   62.2173   -7.4359 C   0  0  0  0  0  0
   -5.6090   63.3341   -6.4402 C   0  0  0  0  0  0
    0.2666   59.5226   -7.1200 N   0  0  0  0  0  0
    2.0758   64.4602   -9.7700 H   0  0  0  0  0  0
   -3.2175   60.0072   -6.6793 H   0  0  0  0  0  0
    0.5524   59.1184   -8.0118 H   0  0  0  0  0  0
   -0.2329   58.8212   -6.5732 H   0  0  0  0  0  0
  1  2  2  0  0  0
  1  3  1  0  0  0
  1  4  1  0  0  0
  3 29  1  0  0  0
  4  5  2  0  0  0
  4 13  1  0  0  0
  5  6  1  0  0  0
  6  7  1  0  0  0
  6 28  1  0  0  0
  7  8  1  0  0  0
  7 12  1  0  0  0
  8  9  1  0  0  0
  8 30  1  0  0  0
  9 10  2  0  0  0
  9 11  1  0  0  0
 12 13  1  0  0  0
 12 14  1  0  0  0
 14 15  2  0  0  0
 14 16  1  0  0  0
 16 17  1  0  0  0
 16 25  1  0  0  0
 17 18  1  0  0  0
 18 19  1  0  0  0
 19 20  2  0  0  0
 19 21  1  0  0  0
 20 22  1  0  0  0
 21 23  2  0  0  0
 22 24  2  0  0  0
 23 24  1  0  0  0
 25 26  1  0  0  0
 26 27  1  0  0  0
 28 31  1  0  0  0
 28 32  1  0  0  0
M  END
>  <CHROM.0>
-86.02346120,-61.50733789,-64.69939797,76.29833588,40.17682841,-91.84083030
-177.06311010,13.30060981,-164.05959023,-159.37472670

>  <CHROM.1>
-6.94432440,-164.45361331,-67.00096023,-112.04927863,-38.72812199,70.58277348
-72.34334858,-106.89840247,101.99612374,177.56204643,-2.96616667,60.46768386
-9.41941270,0.53188892,-0.68905149,-0.22623206

>  <FORMUL>
      DPC    C20 H27 N3 O5

>  <HET>
 DPC  A 466      28

>  <HETNAM>
     DPC 5-ACETYLAMINO-4-AMINO-6-(PHENETHYL-PROPYL-CARBAMOYL)-5,
   2 DPC 6-DIHYDRO-4H-PYRAN-2-CARBOXYLIC ACID

>  <Name>
DPC.pdb

>  <RI>
0

>  <Rbt.Current_Directory>
/home/malgorzata/Desktop/rDOCK_IFD/Wyniki/11_neuraminidase/IFD

>  <Rbt.Executable>
rbdock ($Id: //depot/dev/client3/rdock/2013.1/src/exe/rbdock.cxx#4 $)

>  <Rbt.Library>
libRbt.so (2013.1, Build901 2013/11/27)

>  <Rbt.Parameter_File>
/home/malgorzata/Desktop/rDock_2013.1_src/data/scripts/hard_docking.prm

>  <Rbt.Receptor>
cavity.prm

>  <SCORE>
1.05309

>  <SCORE.INTER>
-0.167002

>  <SCORE.INTER.CONST>
1

>  <SCORE.INTER.POLAR>
-1.09648

>  <SCORE.INTER.REPUL>
0.092827

>  <SCORE.INTER.ROT>
9

>  <SCORE.INTER.VDW>
-11.3031

>  <SCORE.INTER.norm>
-0.00596437

>  <SCORE.INTRA>
1.35314

>  <SCORE.INTRA.DIHEDRAL>
4.47894

>  <SCORE.INTRA.DIHEDRAL.0>
7.68839

>  <SCORE.INTRA.POLAR>
0

>  <SCORE.INTRA.POLAR.0>
0

>  <SCORE.INTRA.REPUL>
0

>  <SCORE.INTRA.REPUL.0>
0

>  <SCORE.INTRA.VDW>
-0.886331

>  <SCORE.INTRA.VDW.0>
-2.73227

>  <SCORE.INTRA.norm>
0.0483264

>  <SCORE.RESTR>
0.844342

>  <SCORE.RESTR.CAVITY>
0.844342

>  <SCORE.RESTR.norm>
0.0301551

>  <SCORE.SYSTEM>
-0.977387

>  <SCORE.SYSTEM.CONST>
0

>  <SCORE.SYSTEM.DIHEDRAL>
3.31288

>  <SCORE.SYSTEM.POLAR>
-0.748924

>  <SCORE.SYSTEM.REPUL>
0.9584

>  <SCORE.SYSTEM.VDW>
-4.87949

>  <SCORE.SYSTEM.norm>
-0.0349067

>  <SCORE.heavy>
28

>  <SCORE.norm>
0.0376104

$$$$
DPC.pdb
  rDOCK(R)          3D
libRbt.so/2013.1/901 2013/11/27
 32 33  0  0  0  0  0  0  0  0999 V2000
    0.1502   56.7588   -7.6814 C   0  0  0  0  0  0
    0.8827   56.3290   -6.7978 O   0  0  0  0  0  0
    0.2822   56.3548   -8.8288 O   0  0  0  0  0  0
   -0.9555   57.6616   -7.3142 C   0  0  0  0  0  0
   -1.4040   57.7245   -6.0560 C   0  0  0  0  0  0
   -2.4950   58.6887   -5.6767 C   0  0  0  0  0  0
   -3.2365   59.2238   -6.8988 C   0  0  0  0  0  0
   -3.9571   60.4370   -6.5307 N   0  0  0  0  0  0
   -5.1141   60.8343   -7.0822 C   0  0  0  0  0  0
   -5.6328   60.2069   -7.9897 O   0  0  0  0  0  0
   -5.7683   62.0907   -6.4786 C   0  0  0  0  0  0
   -2.2220   59.5586   -7.9898 C   0  0  0  0  0  0
   -1.4229   58.4449   -8.2862 O   0  0  0  0  0  0
   -2.9466   59.8567   -9.2830 C   0  0  0  0  0  0
   -2.7903   60.7609   -9.5977 O   0  0  0  0  0  0
   -3.5555   58.8814   -9.9438 N   0  0  0  0  0  0
   -4.1581   59.2486  -11.2445 C   0  0  0  0  0  0
   -3.8383   58.2332  -12.3460 C   0  0  0  0  0  0
   -4.8875   58.3452  -13.4342 C   0  0  0  0  0  0
   -5.0090   59.5328  -14.1900 C   0  0  0  0  0  0
   -5.7729   57.2871  -13.6850 C   0  0  0  0  0  0
   -6.0238   59.6692  -15.1535 C   0  0  0  0  0  0
   -6.7822   57.4210  -14.6436 C   0  0  0  0  0  0
   -6.9228   58.6095  -15.3729 C   0  0  0  0  0  0
   -3.7189   57.5225   -9.4320 C   0  0  0  0  0  0
   -5.1923   57.0821   -9.3933 C   0  0  0  0  0  0
   -5.4190   55.5787   -9.1475 C   0  0  0  0  0  0
   -3.4190   58.0283   -4.7937 N   0  0  0  0  0  0
   -0.3032   56.6481   -9.4991 H   0  0  0  0  0  0
   -3.5670   61.0049   -5.8274 H   0  0  0  0  0  0
   -4.2735   58.5805   -4.7210 H   0  0  0  0  0  0
   -2.9968   57.9318   -3.8702 H   0  0  0  0  0  0
  1  2  2  0  0  0
  1  3  1  0  0  0
  1  4  1  0  0  0
  3 29  1  0  0  0
  4  5  2  0  0  0
  4 13  1  0  0  0
  5  6  1  0  0  0
  6  7  1  0  0  0
  6 28  1  0  0  0
  7  8  1  0  0  0
  7 12  1  0  0  0
  8  9  1  0  0  0
  8 30  1  0  0  0
  9 10  2  0  0  0
  9 11  1  0  0  0
 12 13  1  0  0  0
 12 14  1  0  0  0
 14 15  2  0  0  0
 14 16  1  0  0  0
 16 17  1  0  0  0
 16 25  1  0  0  0
 17 18  1  0  0  0
 18 19  1  0  0  0
 19 20  2  0  0  0
 19 21  1  0  0  0
 20 22  1  0  0  0
 21 23  2  0  0  0
 22 24  2  0  0  0
 23 24  1  0  0  0
 25 26  1  0  0  0
 26 27  1  0  0  0
 28 31  1  0  0  0
 28 32  1  0  0  0
M  END
>  <CHROM.0>
-112.33236938,-178.43739188,178.60315406,176.39821201,47.24903812,-128.71367220
-149.31228751,-116.29873101,-164.98607032,102.82666654

>  <CHROM.1>
176.92844215,-18.80975793,-165.69903644,-148.80479929,118.44312891,134.49518741
123.60139095,157.47394067,64.34045046,167.82787046,-3.57637220,58.57731421
-9.37590421,-0.92539924,0.65266100,-1.96252284

>  <FORMUL>
      DPC    C20 H27 N3 O5

>  <HET>
 DPC  A 466      28

>  <HETNAM>
     DPC 5-ACETYLAMINO-4-AMINO-6-(PHENETHYL-PROPYL-CARBAMOYL)-5,
   2 DPC 6-DIHYDRO-4H-PYRAN-2-CARBOXYLIC ACID

>  <Name>
DPC.pdb

>  <RI>
0

>  <Rbt.Current_Directory>
/home/malgorzata/Desktop/rDOCK_IFD/Wyniki/11_neuraminidase/IFD

>  <Rbt.Executable>
rbdock ($Id: //depot/dev/client3/rdock/2013.1/src/exe/rbdock.cxx#4 $)

>  <Rbt.Library>
libRbt.so (2013.1, Build901 2013/11/27)

>  <Rbt.Parameter_File>
/home/malgorzata/Desktop/rDock_2013.1_src/data/scripts/hard_docking.prm

>  <Rbt.Receptor>
cavity.prm

>  <SCORE>
-12.2852

>  <SCORE.INTER>
-6.7508

>  <SCORE.INTER.CONST>
1

>  <SCORE.INTER.POLAR>
-0.316814

>  <SCORE.INTER.REPUL>
0

>  <SCORE.INTER.ROT>
9

>  <SCORE.INTER.VDW>
-20.0736

>  <SCORE.INTER.norm>
-0.2411

>  <SCORE.INTRA>
1.33368

>  <SCORE.INTRA.DIHEDRAL>
1.86191

>  <SCORE.INTRA.DIHEDRAL.0>
7.68839

>  <SCORE.INTRA.POLAR>
0

>  <SCORE.INTRA.POLAR.0>
0

>  <SCORE.INTRA.REPUL>
0

>  <SCORE.INTRA.REPUL.0>
0

>  <SCORE.INTRA.VDW>
0.402722

>  <SCORE.INTRA.VDW.0>
-2.73227

>  <SCORE.INTRA.norm>
0.0476314

>  <SCORE.RESTR>
0

>  <SCORE.RESTR.CAVITY>
0

>  <SCORE.RESTR.norm>
0

>  <SCORE.SYSTEM>
-6.86807

>  <SCORE.SYSTEM.CONST>
0

>  <SCORE.SYSTEM.DIHEDRAL>
3.16277

>  <SCORE.SYSTEM.POLAR>
-0.577893

>  <SCORE.SYSTEM.VDW>
-6.48461

>  <SCORE.SYSTEM.norm>
-0.245288

>  <SCORE.heavy>
28

>  <SCORE.norm>
-0.438757

$$$$
DPC.pdb
  rDOCK(R)          3D
libRbt.so/2013.1/901 2013/11/27
 32 33  0  0  0  0  0  0  0  0999 V2000
   -5.2514   61.8352  -13.9400 C   0  0  0  0  0  0
   -6.0720   61.5641  -14.8089 O   0  0  0  0  0  0
   -5.0767   63.0014  -13.6132 O   0  0  0  0  0  0
   -4.5835   60.7347  -13.2222 C   0  0  0  0  0  0
   -4.7661   59.4621  -13.5898 C   0  0  0  0  0  0
   -4.0377   58.3479  -12.8886 C   0  0  0  0  0  0
   -3.4514   58.7985  -11.5532 C   0  0  0  0  0  0
   -2.4228   57.8526  -11.1362 N   0  0  0  0  0  0
   -2.4194   57.1957   -9.9661 C   0  0  0  0  0  0
   -3.2839   57.3879   -9.1282 O   0  0  0  0  0  0
   -1.2983   56.1603   -9.7616 C   0  0  0  0  0  0
   -2.8193   60.1775  -11.7268 C   0  0  0  0  0  0
   -3.7490   61.0904  -12.2455 O   0  0  0  0  0  0
   -2.4525   60.7422  -10.3730 C   0  0  0  0  0  0
   -2.7527   60.1803   -9.6413 O   0  0  0  0  0  0
   -1.6501   61.7944  -10.2868 N   0  0  0  0  0  0
   -1.2721   62.2195   -8.9207 C   0  0  0  0  0  0
    0.1202   61.7242   -8.5171 C   0  0  0  0  0  0
    0.3921   62.1425   -7.0857 C   0  0  0  0  0  0
    0.8122   63.4595   -6.7938 C   0  0  0  0  0  0
    0.2630   61.2223   -6.0354 C   0  0  0  0  0  0
    1.1324   63.8351   -5.4773 C   0  0  0  0  0  0
    0.5802   61.5947   -4.7254 C   0  0  0  0  0  0
    1.0259   62.8921   -4.4387 C   0  0  0  0  0  0
   -1.1952   62.5742  -11.4358 C   0  0  0  0  0  0
   -0.1276   61.8363  -12.2617 C   0  0  0  0  0  0
    0.3819   62.5969  -13.5002 C   0  0  0  0  0  0
   -4.9458   57.2519  -12.6796 N   0  0  0  0  0  0
   -4.4647   63.2113  -12.9354 H   0  0  0  0  0  0
   -1.6779   57.6838  -11.7574 H   0  0  0  0  0  0
   -4.4933   56.5399  -12.1063 H   0  0  0  0  0  0
   -5.2053   56.8490  -13.5801 H   0  0  0  0  0  0
  1  2  2  0  0  0
  1  3  1  0  0  0
  1  4  1  0  0  0
  3 29  1  0  0  0
  4  5  2  0  0  0
  4 13  1  0  0  0
  5  6  1  0  0  0
  6  7  1  0  0  0
  6 28  1  0  0  0
  7  8  1  0  0  0
  7 12  1  0  0  0
  8  9  1  0  0  0
  8 30  1  0  0  0
  9 10  2  0  0  0
  9 11  1  0  0  0
 12 13  1  0  0  0
 12 14  1  0  0  0
 14 15  2  0  0  0
 14 16  1  0  0  0
 16 17  1  0  0  0
 16 25  1  0  0  0
 17 18  1  0  0  0
 18 19  1  0  0  0
 19 20  2  0  0  0
 19 21  1  0  0  0
 20 22  1  0  0  0
 21 23  2  0  0  0
 22 24  2  0  0  0
 23 24  1  0  0  0
 25 26  1  0  0  0
 26 27  1  0  0  0
 28 31  1  0  0  0
 28 32  1  0  0  0
M  END
>  <CHROM.0>
-73.31307975,-60.74290971,-178.48492894,-113.31263794,151.33468381,-125.48369174
-175.11585446,-89.47328412,-174.70469428,115.48088450

>  <CHROM.1>
178.58158701,6.32410387,-173.18145508,-123.78846957,-5.37042220,99.81606993
-74.07973400,-177.08761963,-80.13453250,179.21789469,-2.16781345,60.66804278
-10.44347740,-3.05059053,0.96312913,2.70321612

>  <FORMUL>
      DPC    C20 H27 N3 O5

>  <HET>
 DPC  A 466      28

>  <HETNAM>
     DPC 5-ACETYLAMINO-4-AMINO-6-(PHENETHYL-PROPYL-CARBAMOYL)-5,
   2 DPC 6-DIHYDRO-4H-PYRAN-2-CARBOXYLIC ACID

>  <Name>
DPC.pdb

>  <RI>
0

>  <Rbt.Current_Directory>
/home/malgorzata/Desktop/rDOCK_IFD/Wyniki/11_neuraminidase/IFD

>  <Rbt.Executable>
rbdock ($Id: //depot/dev/client3/rdock/2013.1/src/exe/rbdock.cxx#4 $)

>  <Rbt.Library>
libRbt.so (2013.1, Build901 2013/11/27)

>  <Rbt.Parameter_File>
/home/malgorzata/Desktop/rDock_2013.1_src/data/scripts/hard_docking.prm

>  <Rbt.Receptor>
cavity.prm

>  <SCORE>
0.131243

>  <SCORE.INTER>
1.40375

>  <SCORE.INTER.CONST>
1

>  <SCORE.INTER.POLAR>
0

>  <SCORE.INTER.REPUL>
0

>  <SCORE.INTER.ROT>
9

>  <SCORE.INTER.VDW>
-12.9962

>  <SCORE.INTER.norm>
0.0501341

>  <SCORE.INTRA>
0.377963

>  <SCORE.INTRA.DIHEDRAL>
-2.12246

>  <SCORE.INTRA.DIHEDRAL.0>
7.68839

>  <SCORE.INTRA.POLAR>
-0.0190001

>  <SCORE.INTRA.POLAR.0>
0

>  <SCORE.INTRA.REPUL>
0

>  <SCORE.INTRA.REPUL.0>
0

>  <SCORE.INTRA.VDW>
1.50379

>  <SCORE.INTRA.VDW.0>
-2.73227

>  <SCORE.INTRA.norm>
0.0134987

>  <SCORE.RESTR>
0.628508

>  <SCORE.RESTR.CAVITY>
0.628508

>  <SCORE.RESTR.norm>
0.0224467

>  <SCORE.SYSTEM>
-2.27898

>  <SCORE.SYSTEM.CONST>
0

>  <SCORE.SYSTEM.DIHEDRAL>
2.87132

>  <SCORE.SYSTEM.POLAR>
-0.429928

>  <SCORE.SYSTEM.REPUL>
0.9584

>  <SCORE.SYSTEM.VDW>
-7.04489

>  <SCORE.SYSTEM.norm>
-0.0813923

>  <SCORE.heavy>
28

>  <SCORE.norm>
0.00468724

$$$$
DPC.pdb
  rDOCK(R)          3D
libRbt.so/2013.1/901 2013/11/27
 32 33  0  0  0  0  0  0  0  0999 V2000
   -0.6116   59.5063  -13.4059 C   0  0  0  0  0  0
   -0.8282   58.3244  -13.6471 O   0  0  0  0  0  0
    0.5112   59.9635  -13.5717 O   0  0  0  0  0  0
   -1.7425   60.3777  -13.0393 C   0  0  0  0  0  0
   -1.5659   61.6885  -12.8427 C   0  0  0  0  0  0
   -2.7340   62.5816  -12.5238 C   0  0  0  0  0  0
   -3.9581   61.7860  -12.0782 C   0  0  0  0  0  0
   -5.1461   62.6226  -12.2016 N   0  0  0  0  0  0
   -6.0282   62.8455  -11.2152 C   0  0  0  0  0  0
   -5.9123   62.3082  -10.1270 O   0  0  0  0  0  0
   -7.1594   63.8456  -11.5169 C   0  0  0  0  0  0
   -4.1133   60.5640  -12.9805 C   0  0  0  0  0  0
   -2.9403   59.7953  -12.9850 O   0  0  0  0  0  0
   -5.1658   59.6410  -12.4089 C   0  0  0  0  0  0
   -5.8900   59.4711  -13.0315 O   0  0  0  0  0  0
   -4.9556   59.0293  -11.2513 N   0  0  0  0  0  0
   -5.9992   58.0747  -10.8162 C   0  0  0  0  0  0
   -5.7858   56.6710  -11.3915 C   0  0  0  0  0  0
   -4.7229   55.9639  -10.5744 C   0  0  0  0  0  0
   -5.0833   55.1984   -9.4428 C   0  0  0  0  0  0
   -3.3664   56.0847  -10.9086 C   0  0  0  0  0  0
   -4.0980   54.5965   -8.6404 C   0  0  0  0  0  0
   -2.3853   55.4859  -10.1120 C   0  0  0  0  0  0
   -2.7396   54.7515   -8.9721 C   0  0  0  0  0  0
   -3.8161   59.2987  -10.3772 C   0  0  0  0  0  0
   -4.1883   60.1985   -9.1863 C   0  0  0  0  0  0
   -5.1116   59.5483   -8.1391 C   0  0  0  0  0  0
   -2.3493   63.5070  -11.4917 N   0  0  0  0  0  0
    0.6740   60.8733  -13.4176 H   0  0  0  0  0  0
   -5.3128   63.0547  -13.0703 H   0  0  0  0  0  0
   -2.1244   62.9924  -10.6401 H   0  0  0  0  0  0
   -3.1193   64.1499  -11.3071 H   0  0  0  0  0  0
  1  2  2  0  0  0
  1  3  1  0  0  0
  1  4  1  0  0  0
  3 29  1  0  0  0
  4  5  2  0  0  0
  4 13  1  0  0  0
  5  6  1  0  0  0
  6  7  1  0  0  0
  6 28  1  0  0  0
  7  8  1  0  0  0
  7 12  1  0  0  0
  8  9  1  0  0  0
  8 30  1  0  0  0
  9 10  2  0  0  0
  9 11  1  0  0  0
 12 13  1  0  0  0
 12 14  1  0  0  0
 14 15  2  0  0  0
 14 16  1  0  0  0
 16 17  1  0  0  0
 16 25  1  0  0  0
 17 18  1  0  0  0
 18 19  1  0  0  0
 19 20  2  0  0  0
 19 21  1  0  0  0
 20 22  1  0  0  0
 21 23  2  0  0  0
 22 24  2  0  0  0
 23 24  1  0  0  0
 25 26  1  0  0  0
 26 27  1  0  0  0
 28 31  1  0  0  0
 28 32  1  0  0  0
M  END
>  <CHROM.0>
-75.50726278,-66.90799055,-61.48347900,-120.11838776,48.37252884,-128.13586520
112.72361030,-84.30385465,39.45638685,114.99633562

>  <CHROM.1>
177.82731893,-176.12497049,-63.16101508,-127.03147467,122.43065709,86.37862556
101.56034495,79.55748994,89.78798376,68.92227036,-3.84635646,59.50376556
-11.41157718,-1.57973449,-0.49960074,2.82048599

>  <FORMUL>
      DPC    C20 H27 N3 O5

>  <HET>
 DPC  A 466      28

>  <HETNAM>
     DPC 5-ACETYLAMINO-4-AMINO-6-(PHENETHYL-PROPYL-CARBAMOYL)-5,
   2 DPC 6-DIHYDRO-4H-PYRAN-2-CARBOXYLIC ACID

>  <Name>
DPC.pdb

>  <RI>
0

>  <Rbt.Current_Directory>
/home/malgorzata/Desktop/rDOCK_IFD/Wyniki/11_neuraminidase/IFD

>  <Rbt.Executable>
rbdock ($Id: //depot/dev/client3/rdock/2013.1/src/exe/rbdock.cxx#4 $)

>  <Rbt.Library>
libRbt.so (2013.1, Build901 2013/11/27)

>  <Rbt.Parameter_File>
/home/malgorzata/Desktop/rDock_2013.1_src/data/scripts/hard_docking.prm

>  <Rbt.Receptor>
cavity.prm

>  <SCORE>
-5.89552

>  <SCORE.INTER>
-0.784098

>  <SCORE.INTER.CONST>
1

>  <SCORE.INTER.POLAR>
-0.341447

>  <SCORE.INTER.REPUL>
0

>  <SCORE.INTER.ROT>
9

>  <SCORE.INTER.VDW>
-14.0232

>  <SCORE.INTER.norm>
-0.0280035

>  <SCORE.INTRA>
-1.5215

>  <SCORE.INTRA.DIHEDRAL>
-0.783317

>  <SCORE.INTRA.DIHEDRAL.0>
7.68839

>  <SCORE.INTRA.POLAR>
0

>  <SCORE.INTRA.POLAR.0>
0

>  <SCORE.INTRA.REPUL>
0

>  <SCORE.INTRA.REPUL.0>
0

>  <SCORE.INTRA.VDW>
-1.12984

>  <SCORE.INTRA.VDW.0>
-2.73227

>  <SCORE.INTRA.norm>
-0.0543394

>  <SCORE.RESTR>
0

>  <SCORE.RESTR.CAVITY>
0

>  <SCORE.RESTR.norm>
0

>  <SCORE.SYSTEM>
-3.58992

>  <SCORE.SYSTEM.CONST>
0

>  <SCORE.SYSTEM.DIHEDRAL>
5.02331

>  <SCORE.SYSTEM.POLAR>
-1.57379

>  <SCORE.SYSTEM.REPUL>
0.961183

>  <SCORE.SYSTEM.VDW>
-5.55662

>  <SCORE.SYSTEM.norm>
-0.128211

>  <SCORE.heavy>
28

>  <SCORE.norm>
-0.210554

$$$$
DPC.pdb
  rDOCK(R)          3D
libRbt.so/2013.1/901 2013/11/27
 32 33  0  0  0  0  0  0  0  0999 V2000
   -4.3352   58.1442   -5.7341 C   0  0  0  0  0  0
   -4.3947   59.2108   -5.1334 O   0  0  0  0  0  0
   -4.4027   57.0928   -5.1117 O   0  0  0  0  0  0
   -4.3084   58.1566   -7.2077 C   0  0  0  0  0  0
   -4.7645   57.1164   -7.9134 C   0  0  0  0  0  0
   -4.7860   57.1585   -9.4172 C   0  0  0  0  0  0
   -3.9028   58.2733   -9.9714 C   0  0  0  0  0  0
   -4.2847   58.5478  -11.3517 N   0  0  0  0  0  0
   -3.5220   58.2789  -12.4224 C   0  0  0  0  0  0
   -2.4024   57.8115  -12.3025 O   0  0  0  0  0  0
   -4.1523   58.5477  -13.8013 C   0  0  0  0  0  0
   -4.1105   59.5348   -9.1366 C   0  0  0  0  0  0
   -3.8711   59.2790   -7.7786 O   0  0  0  0  0  0
   -3.0739   60.5693   -9.5130 C   0  0  0  0  0  0
   -2.6809   60.4029  -10.3842 O   0  0  0  0  0  0
   -2.9128   61.6519   -8.7643 N   0  0  0  0  0  0
   -1.9418   62.6524   -9.2602 C   0  0  0  0  0  0
   -0.4898   62.1976   -9.0834 C   0  0  0  0  0  0
   -0.1809   62.1124   -7.6019 C   0  0  0  0  0  0
    0.3237   63.2372   -6.9115 C   0  0  0  0  0  0
   -0.3597   60.9102   -6.9024 C   0  0  0  0  0  0
    0.6772   63.1463   -5.5537 C   0  0  0  0  0  0
   -0.0094   60.8186   -5.5517 C   0  0  0  0  0  0
    0.5195   61.9250   -4.8733 C   0  0  0  0  0  0
   -3.5716   61.8635   -7.4773 C   0  0  0  0  0  0
   -5.0138   62.3755   -7.6322 C   0  0  0  0  0  0
   -5.7716   62.6047   -6.3111 C   0  0  0  0  0  0
   -4.3484   55.8871   -9.9287 N   0  0  0  0  0  0
   -4.1936   56.2835   -5.5351 H   0  0  0  0  0  0
   -5.1649   58.9598  -11.5093 H   0  0  0  0  0  0
   -5.0423   55.1737   -9.7053 H   0  0  0  0  0  0
   -3.4556   55.6383   -9.5027 H   0  0  0  0  0  0
  1  2  2  0  0  0
  1  3  1  0  0  0
  1  4  1  0  0  0
  3 29  1  0  0  0
  4  5  2  0  0  0
  4 13  1  0  0  0
  5  6  1  0  0  0
  6  7  1  0  0  0
  6 28  1  0  0  0
  7  8  1  0  0  0
  7 12  1  0  0  0
  8  9  1  0  0  0
  8 30  1  0  0  0
  9 10  2  0  0  0
  9 11  1  0  0  0
 12 13  1  0  0  0
 12 14  1  0  0  0
 14 15  2  0  0  0
 14 16  1  0  0  0
 16 17  1  0  0  0
 16 25  1  0  0  0
 17 18  1  0  0  0
 18 19  1  0  0  0
 19 20  2  0  0  0
 19 21  1  0  0  0
 20 22  1  0  0  0
 21 23  2  0  0  0
 22 24  2  0  0  0
 23 24  1  0  0  0
 25 26  1  0  0  0
 26 27  1  0  0  0
 28 31  1  0  0  0
 28 32  1  0  0  0
M  END
>  <CHROM.0>
-62.79259233,-59.26372667,-60.72308923,-74.82686515,-51.47895158,-128.77863250
175.73530280,18.17788485,167.57943515,141.27757765

>  <CHROM.1>
-168.17091617,-153.25905350,67.74611736,-111.51368545,20.09872005,-73.79427222
-81.47684118,-66.03027200,-89.67654574,179.34747092,-2.99489193,59.92659994
-8.35229983,2.35678014,-0.85758823,-1.70215554

>  <FORMUL>
      DPC    C20 H27 N3 O5

>  <HET>
 DPC  A 466      28

>  <HETNAM>
     DPC 5-ACETYLAMINO-4-AMINO-6-(PHENETHYL-PROPYL-CARBAMOYL)-5,
   2 DPC 6-DIHYDRO-4H-PYRAN-2-CARBOXYLIC ACID

>  <Name>
DPC.pdb

>  <RI>
0

>  <Rbt.Current_Directory>
/home/malgorzata/Desktop/rDOCK_IFD/Wyniki/11_neuraminidase/IFD

>  <Rbt.Executable>
rbdock ($Id: //depot/dev/client3/rdock/2013.1/src/exe/rbdock.cxx#4 $)

>  <Rbt.Library>
libRbt.so (2013.1, Build901 2013/11/27)

>  <Rbt.Parameter_File>
/home/malgorzata/Desktop/rDock_2013.1_src/data/scripts/hard_docking.prm

>  <Rbt.Receptor>
cavity.prm

>  <SCORE>
-0.949424

>  <SCORE.INTER>
-2.37811

>  <SCORE.INTER.CONST>
1

>  <SCORE.INTER.POLAR>
-1.31026

>  <SCORE.INTER.REPUL>
0.0281158

>  <SCORE.INTER.ROT>
9

>  <SCORE.INTER.VDW>
-12.4638

>  <SCORE.INTER.norm>
-0.0849325

>  <SCORE.INTRA>
2.3118

>  <SCORE.INTRA.DIHEDRAL>
1.18129

>  <SCORE.INTRA.DIHEDRAL.0>
7.68839

>  <SCORE.INTRA.POLAR>
0

>  <SCORE.INTRA.POLAR.0>
0

>  <SCORE.INTRA.REPUL>
0

>  <SCORE.INTRA.REPUL.0>
0

>  <SCORE.INTRA.VDW>
1.72115

>  <SCORE.INTRA.VDW.0>
-2.73227

>  <SCORE.INTRA.norm>
0.0825641

>  <SCORE.RESTR>
0

>  <SCORE.RESTR.CAVITY>
0

>  <SCORE.RESTR.norm>
0

>  <SCORE.SYSTEM>
-0.883111

>  <SCORE.SYSTEM.CONST>
0

>  <SCORE.SYSTEM.DIHEDRAL>
3.0323

>  <SCORE.SYSTEM.POLAR>
-0.439028

>  <SCORE.SYSTEM.REPUL>
0.9584

>  <SCORE.SYSTEM.VDW>
-5.69856

>  <SCORE.SYSTEM.norm>
-0.0315397

>  <SCORE.heavy>
28

>  <SCORE.norm>
-0.033908

$$$$
DPC.pdb
  rDOCK(R)          3D
libRbt.so/2013.1/901 2013/11/27
 32 33  0  0  0  0  0  0  0  0999 V2000
   -3.9110   57.7529  -10.8477 C   0  0  0  0  0  0
   -4.2717   56.5831  -10.7892 O   0  0  0  0  0  0
   -4.2140   58.4332  -11.8186 O   0  0  0  0  0  0
   -3.2253   58.3463   -9.6858 C   0  0  0  0  0  0
   -2.8446   57.5899   -8.6509 C   0  0  0  0  0  0
   -2.0954   58.1925   -7.4935 C   0  0  0  0  0  0
   -2.2007   59.7151   -7.4739 C   0  0  0  0  0  0
   -1.1414   60.2593   -6.6322 N   0  0  0  0  0  0
   -1.2124   60.3779   -5.2975 C   0  0  0  0  0  0
   -2.2204   60.0681   -4.6857 O   0  0  0  0  0  0
    0.0560   60.8792   -4.5829 C   0  0  0  0  0  0
   -2.0290   60.2446   -8.8958 C   0  0  0  0  0  0
   -2.9547   59.6491   -9.7647 O   0  0  0  0  0  0
   -2.3701   61.7172   -8.9340 C   0  0  0  0  0  0
   -1.6102   62.2694   -9.1761 O   0  0  0  0  0  0
   -3.6313   62.1104   -8.8189 N   0  0  0  0  0  0
   -3.8800   63.5623   -8.9608 C   0  0  0  0  0  0
   -3.4426   64.1010  -10.3265 C   0  0  0  0  0  0
   -4.1169   63.2863  -11.4124 C   0  0  0  0  0  0
   -3.4962   62.1245  -11.9235 C   0  0  0  0  0  0
   -5.3484   63.6899  -11.9481 C   0  0  0  0  0  0
   -4.0827   61.4026  -12.9780 C   0  0  0  0  0  0
   -5.9334   62.9724  -12.9963 C   0  0  0  0  0  0
   -5.3040   61.8371  -13.5246 C   0  0  0  0  0  0
   -4.7419   61.2175   -8.4957 C   0  0  0  0  0  0
   -5.4522   61.6115   -7.1894 C   0  0  0  0  0  0
   -4.5702   61.5705   -5.9276 C   0  0  0  0  0  0
   -2.6131   57.6500   -6.2658 N   0  0  0  0  0  0
   -4.7037   58.0542  -12.5219 H   0  0  0  0  0  0
   -0.3154   60.5611   -7.0748 H   0  0  0  0  0  0
   -2.0918   58.0343   -5.4778 H   0  0  0  0  0  0
   -2.5161   56.6347   -6.2751 H   0  0  0  0  0  0
  1  2  2  0  0  0
  1  3  1  0  0  0
  1  4  1  0  0  0
  3 29  1  0  0  0
  4  5  2  0  0  0
  4 13  1  0  0  0
  5  6  1  0  0  0
  6  7  1  0  0  0
  6 28  1  0  0  0
  7  8  1  0  0  0
  7 12  1  0  0  0
  8  9  1  0  0  0
  8 30  1  0  0  0
  9 10  2  0  0  0
  9 11  1  0  0  0
 12 13  1  0  0  0
 12 14  1  0  0  0
 14 15  2  0  0  0
 14 16  1  0  0  0
 16 17  1  0  0  0
 16 25  1  0  0  0
 17 18  1  0  0  0
 18 19  1  0  0  0
 19 20  2  0  0  0
 19 21  1  0  0  0
 20 22  1  0  0  0
 21 23  2  0  0  0
 22 24  2  0  0  0
 23 24  1  0  0  0
 25 26  1  0  0  0
 26 27  1  0  0  0
 28 31  1  0  0  0
 28 32  1  0  0  0
M  END
>  <CHROM.0>
-73.93663191,68.76721968,66.20042752,-123.67088575,-47.71071583,-128.12360623
171.00941242,-82.41890200,-170.39420977,158.31968915

>  <CHROM.1>
-1.33161699,8.54180476,178.39764281,-83.88053523,116.56418347,60.03415823
119.30835710,54.54372067,-89.69175537,-61.43655665,-3.29496452,60.63801962
-9.05640579,2.98885824,-1.16162719,0.20415383

>  <FORMUL>
      DPC    C20 H27 N3 O5

>  <HET>
 DPC  A 466      28

>  <HETNAM>
     DPC 5-ACETYLAMINO-4-AMINO-6-(PHENETHYL-PROPYL-CARBAMOYL)-5,
   2 DPC 6-DIHYDRO-4H-PYRAN-2-CARBOXYLIC ACID

>  <Name>
DPC.pdb

>  <RI>
0

>  <Rbt.Current_Directory>
/home/malgorzata/Desktop/rDOCK_IFD/Wyniki/11_neuraminidase/IFD

>  <Rbt.Executable>
rbdock ($Id: //depot/dev/client3/rdock/2013.1/src/exe/rbdock.cxx#4 $)

>  <Rbt.Library>
libRbt.so (2013.1, Build901 2013/11/27)

>  <Rbt.Parameter_File>
/home/malgorzata/Desktop/rDock_2013.1_src/data/scripts/hard_docking.prm

>  <Rbt.Receptor>
cavity.prm

>  <SCORE>
-3.93459

>  <SCORE.INTER>
3.12839

>  <SCORE.INTER.CONST>
1

>  <SCORE.INTER.POLAR>
-0.824621

>  <SCORE.INTER.REPUL>
0

>  <SCORE.INTER.ROT>
9

>  <SCORE.INTER.VDW>
-8.4679

>  <SCORE.INTER.norm>
0.111728

>  <SCORE.INTRA>
-2.19884

>  <SCORE.INTRA.DIHEDRAL>
-2.25793

>  <SCORE.INTRA.DIHEDRAL.0>
7.68839

>  <SCORE.INTRA.POLAR>
0

>  <SCORE.INTRA.POLAR.0>
0

>  <SCORE.INTRA.REPUL>
0

>  <SCORE.INTRA.REPUL.0>
0

>  <SCORE.INTRA.VDW>
-1.06987

>  <SCORE.INTRA.VDW.0>
-2.73227

>  <SCORE.INTRA.norm>
-0.0785299

>  <SCORE.RESTR>
0

>  <SCORE.RESTR.CAVITY>
0

>  <SCORE.RESTR.norm>
0

>  <SCORE.SYSTEM>
-4.86414

>  <SCORE.SYSTEM.CONST>
0

>  <SCORE.SYSTEM.DIHEDRAL>
3.52422

>  <SCORE.SYSTEM.POLAR>
-0.134695

>  <SCORE.SYSTEM.REPUL>
0.0143451

>  <SCORE.SYSTEM.VDW>
-6.24001

>  <SCORE.SYSTEM.norm>
-0.173719

>  <SCORE.heavy>
28

>  <SCORE.norm>
-0.140521

$$$$
DPC.pdb
  rDOCK(R)          3D
libRbt.so/2013.1/901 2013/11/27
 32 33  0  0  0  0  0  0  0  0999 V2000
   -3.2287   57.4903  -12.9478 C   0  0  0  0  0  0
   -2.2263   58.0979  -13.3055 O   0  0  0  0  0  0
   -3.8825   56.8617  -13.7692 O   0  0  0  0  0  0
   -3.5515   57.4311  -11.5109 C   0  0  0  0  0  0
   -4.5391   56.6512  -11.0587 C   0  0  0  0  0  0
   -4.8267   56.5526   -9.5851 C   0  0  0  0  0  0
   -4.1753   57.6864   -8.7977 C   0  0  0  0  0  0
   -4.1128   57.3184   -7.3879 N   0  0  0  0  0  0
   -4.7212   57.9879   -6.3969 C   0  0  0  0  0  0
   -5.3514   59.0086   -6.6142 O   0  0  0  0  0  0
   -4.6187   57.3747   -4.9882 C   0  0  0  0  0  0
   -2.7569   57.9043   -9.3192 C   0  0  0  0  0  0
   -2.7647   58.1402  -10.7016 O   0  0  0  0  0  0
   -2.1862   59.1719   -8.7243 C   0  0  0  0  0  0
   -1.3379   59.0246   -8.2774 O   0  0  0  0  0  0
   -2.7506   60.3426   -8.9880 N   0  0  0  0  0  0
   -2.0696   61.5362   -8.4390 C   0  0  0  0  0  0
   -2.4656   61.8206   -6.9868 C   0  0  0  0  0  0
   -3.9017   62.3047   -6.9573 C   0  0  0  0  0  0
   -4.3199   63.3528   -7.8075 C   0  0  0  0  0  0
   -4.8269   61.7437   -6.0652 C   0  0  0  0  0  0
   -5.6320   63.8534   -7.7371 C   0  0  0  0  0  0
   -6.1324   62.2399   -5.9948 C   0  0  0  0  0  0
   -6.5401   63.2996   -6.8163 C   0  0  0  0  0  0
   -4.0119   60.5003   -9.7086 C   0  0  0  0  0  0
   -3.8891   61.4579  -10.9062 C   0  0  0  0  0  0
   -2.9104   61.0065  -12.0065 C   0  0  0  0  0  0
   -6.2508   56.5709   -9.3826 N   0  0  0  0  0  0
   -3.6326   56.8700  -14.6723 H   0  0  0  0  0  0
   -3.5868   56.5221   -7.1462 H   0  0  0  0  0  0
   -6.6338   57.4462   -9.7396 H   0  0  0  0  0  0
   -6.4535   56.4925   -8.3860 H   0  0  0  0  0  0
  1  2  2  0  0  0
  1  3  1  0  0  0
  1  4  1  0  0  0
  3 29  1  0  0  0
  4  5  2  0  0  0
  4 13  1  0  0  0
  5  6  1  0  0  0
  6  7  1  0  0  0
  6 28  1  0  0  0
  7  8  1  0  0  0
  7 12  1  0  0  0
  8  9  1  0  0  0
  8 30  1  0  0  0
  9 10  2  0  0  0
  9 11  1  0  0  0
 12 13  1  0  0  0
 12 14  1  0  0  0
 14 15  2  0  0  0
 14 16  1  0  0  0
 16 17  1  0  0  0
 16 25  1  0  0  0
 17 18  1  0  0  0
 18 19  1  0  0  0
 19 20  2  0  0  0
 19 21  1  0  0  0
 20 22  1  0  0  0
 21 23  2  0  0  0
 22 24  2  0  0  0
 23 24  1  0  0  0
 25 26  1  0  0  0
 26 27  1  0  0  0
 28 31  1  0  0  0
 28 32  1  0  0  0
M  END
>  <CHROM.0>
-79.92837880,-61.25691459,179.59692929,-115.54025746,-44.88577333,-123.24765930
-137.56133118,-77.67550067,-167.36961667,175.39739971

>  <CHROM.1>
-2.06862506,-171.94708045,-60.70729840,-118.51739885,125.44314276,-84.19457740
-126.58387622,-70.31770746,-50.50327294,62.20950610,-3.90709331,59.46104278
-9.02927870,-0.98138855,1.22166338,0.29446705

>  <FORMUL>
      DPC    C20 H27 N3 O5

>  <HET>
 DPC  A 466      28

>  <HETNAM>
     DPC 5-ACETYLAMINO-4-AMINO-6-(PHENETHYL-PROPYL-CARBAMOYL)-5,
   2 DPC 6-DIHYDRO-4H-PYRAN-2-CARBOXYLIC ACID

>  <Name>
DPC.pdb

>  <RI>
0

>  <Rbt.Current_Directory>
/home/malgorzata/Desktop/rDOCK_IFD/Wyniki/11_neuraminidase/IFD

>  <Rbt.Executable>
rbdock ($Id: //depot/dev/client3/rdock/2013.1/src/exe/rbdock.cxx#4 $)

>  <Rbt.Library>
libRbt.so (2013.1, Build901 2013/11/27)

>  <Rbt.Parameter_File>
/home/malgorzata/Desktop/rDock_2013.1_src/data/scripts/hard_docking.prm

>  <Rbt.Receptor>
cavity.prm

>  <SCORE>
-8.25534

>  <SCORE.INTER>
-3.95165

>  <SCORE.INTER.CONST>
1

>  <SCORE.INTER.POLAR>
-1.28939

>  <SCORE.INTER.REPUL>
0.0937425

>  <SCORE.INTER.ROT>
9

>  <SCORE.INTER.VDW>
-14.4364

>  <SCORE.INTER.norm>
-0.14113

>  <SCORE.INTRA>
-2.84435

>  <SCORE.INTRA.DIHEDRAL>
-2.11174

>  <SCORE.INTRA.DIHEDRAL.0>
7.68839

>  <SCORE.INTRA.POLAR>
0

>  <SCORE.INTRA.POLAR.0>
0

>  <SCORE.INTRA.REPUL>
0

>  <SCORE.INTRA.REPUL.0>
0

>  <SCORE.INTRA.VDW>
-1.78848

>  <SCORE.INTRA.VDW.0>
-2.73227

>  <SCORE.INTRA.norm>
-0.101584

>  <SCORE.RESTR>
0

>  <SCORE.RESTR.CAVITY>
0

>  <SCORE.RESTR.norm>
0

>  <SCORE.SYSTEM>
-1.45933

>  <SCORE.SYSTEM.CONST>
0

>  <SCORE.SYSTEM.DIHEDRAL>
3.08205

>  <SCORE.SYSTEM.POLAR>
-0.418832

>  <SCORE.SYSTEM.REPUL>
0.9584

>  <SCORE.SYSTEM.VDW>
-6.36832

>  <SCORE.SYSTEM.norm>
-0.052119

>  <SCORE.heavy>
28

>  <SCORE.norm>
-0.294833

$$$$
DPC.pdb
  rDOCK(R)          3D
libRbt.so/2013.1/901 2013/11/27
 32 33  0  0  0  0  0  0  0  0999 V2000
   -5.6457   62.6851   -2.8610 C   0  0  0  0  0  0
   -6.6403   63.3805   -2.6902 O   0  0  0  0  0  0
   -5.1054   62.1529   -1.9008 O   0  0  0  0  0  0
   -5.1985   62.4069   -4.2376 C   0  0  0  0  0  0
   -5.6246   63.1512   -5.2636 C   0  0  0  0  0  0
   -5.1207   62.8971   -6.6584 C   0  0  0  0  0  0
   -4.4517   61.5310   -6.7854 C   0  0  0  0  0  0
   -3.6223   61.5117   -7.9847 N   0  0  0  0  0  0
   -4.0026   61.0042   -9.1673 C   0  0  0  0  0  0
   -5.0883   60.4679   -9.3079 O   0  0  0  0  0  0
   -3.0183   61.1771  -10.3386 C   0  0  0  0  0  0
   -3.5668   61.2943   -5.5637 C   0  0  0  0  0  0
   -4.3060   61.4269   -4.3794 O   0  0  0  0  0  0
   -3.0911   59.8590   -5.5517 C   0  0  0  0  0  0
   -3.7954   59.2313   -5.7773 O   0  0  0  0  0  0
   -1.7998   59.5879   -5.4198 N   0  0  0  0  0  0
   -1.4175   58.1613   -5.5123 C   0  0  0  0  0  0
   -0.6347   57.8461   -6.7907 C   0  0  0  0  0  0
   -1.6031   57.3570   -7.8493 C   0  0  0  0  0  0
   -1.5146   56.0362   -8.3430 C   0  0  0  0  0  0
   -2.5784   58.2154   -8.3770 C   0  0  0  0  0  0
   -2.3646   55.5970   -9.3733 C   0  0  0  0  0  0
   -3.4251   57.7798   -9.4012 C   0  0  0  0  0  0
   -3.3184   56.4794   -9.9128 C   0  0  0  0  0  0
   -0.7782   60.5897   -5.1234 C   0  0  0  0  0  0
   -0.5775   61.5845   -6.2795 C   0  0  0  0  0  0
    0.0311   60.9840   -7.5605 C   0  0  0  0  0  0
   -6.2217   62.9906   -7.5795 N   0  0  0  0  0  0
   -5.4549   62.2742   -1.0399 H   0  0  0  0  0  0
   -2.7191   61.8985   -7.9223 H   0  0  0  0  0  0
   -5.8690   62.9538   -8.5359 H   0  0  0  0  0  0
   -6.7142   63.8717   -7.4324 H   0  0  0  0  0  0
  1  2  2  0  0  0
  1  3  1  0  0  0
  1  4  1  0  0  0
  3 29  1  0  0  0
  4  5  2  0  0  0
  4 13  1  0  0  0
  5  6  1  0  0  0
  6  7  1  0  0  0
  6 28  1  0  0  0
  7  8  1  0  0  0
  7 12  1  0  0  0
  8  9  1  0  0  0
  8 30  1  0  0  0
  9 10  2  0  0  0
  9 11  1  0  0  0
 12 13  1  0  0  0
 12 14  1  0  0  0
 14 15  2  0  0  0
 14 16  1  0  0  0
 16 17  1  0  0  0
 16 25  1  0  0  0
 17 18  1  0  0  0
 18 19  1  0  0  0
 19 20  2  0  0  0
 19 21  1  0  0  0
 20 22  1  0  0  0
 21 23  2  0  0  0
 22 24  2  0  0  0
 23 24  1  0  0  0
 25 26  1  0  0  0
 26 27  1  0  0  0
 28 31  1  0  0  0
 28 32  1  0  0  0
M  END
>  <CHROM.0>
-76.40924967,70.09017355,-62.15923535,95.78318842,152.66864122,-127.44742123
-172.30311873,20.53706902,-12.70118523,159.60416484

>  <CHROM.1>
0.31488653,17.31268317,171.89865582,-97.41302153,-43.05174795,110.30161762
-67.38164259,-94.34340865,-115.59977829,-67.36458615,-3.40617551,60.33463090
-6.59649696,-2.22887344,0.76877785,-1.90905340

>  <FORMUL>
      DPC    C20 H27 N3 O5

>  <HET>
 DPC  A 466      28

>  <HETNAM>
     DPC 5-ACETYLAMINO-4-AMINO-6-(PHENETHYL-PROPYL-CARBAMOYL)-5,
   2 DPC 6-DIHYDRO-4H-PYRAN-2-CARBOXYLIC ACID

>  <Name>
DPC.pdb

>  <RI>
0

>  <Rbt.Current_Directory>
/home/malgorzata/Desktop/rDOCK_IFD/Wyniki/11_neuraminidase/IFD

>  <Rbt.Executable>
rbdock ($Id: //depot/dev/client3/rdock/2013.1/src/exe/rbdock.cxx#4 $)

>  <Rbt.Library>
libRbt.so (2013.1, Build901 2013/11/27)

>  <Rbt.Parameter_File>
/home/malgorzata/Desktop/rDock_2013.1_src/data/scripts/hard_docking.prm

>  <Rbt.Receptor>
cavity.prm

>  <SCORE>
-11.2655

>  <SCORE.INTER>
-7.50309

>  <SCORE.INTER.CONST>
1

>  <SCORE.INTER.POLAR>
-0.903403

>  <SCORE.INTER.REPUL>
0

>  <SCORE.INTER.ROT>
9

>  <SCORE.INTER.VDW>
-18.8315

>  <SCORE.INTER.norm>
-0.267968

>  <SCORE.INTRA>
-0.200866

>  <SCORE.INTRA.DIHEDRAL>
3.36012

>  <SCORE.INTRA.DIHEDRAL.0>
7.68839

>  <SCORE.INTRA.POLAR>
0

>  <SCORE.INTRA.POLAR.0>
0

>  <SCORE.INTRA.REPUL>
0

>  <SCORE.INTRA.REPUL.0>
0

>  <SCORE.INTRA.VDW>
-1.88093

>  <SCORE.INTRA.VDW.0>
-2.73227

>  <SCORE.INTRA.norm>
-0.00717378

>  <SCORE.RESTR>
0.494584

>  <SCORE.RESTR.CAVITY>
0.494584

>  <SCORE.RESTR.norm>
0.0176637

>  <SCORE.SYSTEM>
-4.0561

>  <SCORE.SYSTEM.CONST>
0

>  <SCORE.SYSTEM.DIHEDRAL>
3.54762

>  <SCORE.SYSTEM.POLAR>
-0.132797

>  <SCORE.SYSTEM.REPUL>
0.108048

>  <SCORE.SYSTEM.VDW>
-5.91864

>  <SCORE.SYSTEM.norm>
-0.144861

>  <SCORE.heavy>
28

>  <SCORE.norm>
-0.402338

$$$$
DPC.pdb
  rDOCK(R)          3D
libRbt.so/2013.1/901 2013/11/27
 32 33  0  0  0  0  0  0  0  0999 V2000
   -6.9803   57.9820  -11.6540 C   0  0  0  0  0  0
   -7.7569   58.4668  -10.8392 O   0  0  0  0  0  0
   -7.3445   57.0511  -12.3597 O   0  0  0  0  0  0
   -5.6643   58.6165  -11.8492 C   0  0  0  0  0  0
   -4.9240   58.3475  -12.9297 C   0  0  0  0  0  0
   -3.6070   59.0409  -13.1505 C   0  0  0  0  0  0
   -3.0902   59.7068  -11.8780 C   0  0  0  0  0  0
   -2.0793   60.6972  -12.2302 N   0  0  0  0  0  0
   -2.3284   61.8426  -12.8833 C   0  0  0  0  0  0
   -3.4490   62.1177  -13.2769 O   0  0  0  0  0  0
   -1.1391   62.8034  -13.0654 C   0  0  0  0  0  0
   -4.2509   60.4075  -11.1758 C   0  0  0  0  0  0
   -5.2997   59.5096  -10.9293 O   0  0  0  0  0  0
   -3.8135   60.8616   -9.8014 C   0  0  0  0  0  0
   -3.4266   60.1428   -9.2773 O   0  0  0  0  0  0
   -3.8222   62.1514   -9.4935 N   0  0  0  0  0  0
   -3.2903   62.5097   -8.1599 C   0  0  0  0  0  0
   -4.3421   62.3756   -7.0542 C   0  0  0  0  0  0
   -4.6928   60.9104   -6.8879 C   0  0  0  0  0  0
   -5.8153   60.3648   -7.5502 C   0  0  0  0  0  0
   -3.9300   60.0835   -6.0507 C   0  0  0  0  0  0
   -6.1867   59.0241   -7.3466 C   0  0  0  0  0  0
   -4.2977   58.7496   -5.8480 C   0  0  0  0  0  0
   -5.4283   58.2152   -6.4807 C   0  0  0  0  0  0
   -4.3817   63.1945  -10.3502 C   0  0  0  0  0  0
   -5.9025   63.0526  -10.5326 C   0  0  0  0  0  0
   -6.5549   64.1168  -11.4348 C   0  0  0  0  0  0
   -2.6458   58.0822  -13.6266 N   0  0  0  0  0  0
   -6.7747   56.7158  -13.0237 H   0  0  0  0  0  0
   -1.1480   60.5122  -11.9703 H   0  0  0  0  0  0
   -2.3958   57.4466  -12.8690 H   0  0  0  0  0  0
   -1.8108   58.5702  -13.9506 H   0  0  0  0  0  0
  1  2  2  0  0  0
  1  3  1  0  0  0
  1  4  1  0  0  0
  3 29  1  0  0  0
  4  5  2  0  0  0
  4 13  1  0  0  0
  5  6  1  0  0  0
  6  7  1  0  0  0
  6 28  1  0  0  0
  7  8  1  0  0  0
  7 12  1  0  0  0
  8  9  1  0  0  0
  8 30  1  0  0  0
  9 10  2  0  0  0
  9 11  1  0  0  0
 12 13  1  0  0  0
 12 14  1  0  0  0
 14 15  2  0  0  0
 14 16  1  0  0  0
 16 17  1  0  0  0
 16 25  1  0  0  0
 17 18  1  0  0  0
 18 19  1  0  0  0
 19 20  2  0  0  0
 19 21  1  0  0  0
 20 22  1  0  0  0
 21 23  2  0  0  0
 22 24  2  0  0  0
 23 24  1  0  0  0
 25 26  1  0  0  0
 26 27  1  0  0  0
 28 31  1  0  0  0
 28 32  1  0  0  0
M  END
>  <CHROM.0>
-87.32708692,69.59522869,66.72113965,89.68672619,48.01610142,-129.76209741
-175.35856925,146.28908472,1.43001521,118.36332333

>  <CHROM.1>
175.83838746,-163.28094397,-70.98790709,68.57699386,-52.97094065,-84.30264690
64.85602110,66.99385278,-95.46477934,-179.57223228,-4.51414108,60.37668156
-10.37182164,1.13772146,-0.97392433,-1.91406004

>  <FORMUL>
      DPC    C20 H27 N3 O5

>  <HET>
 DPC  A 466      28

>  <HETNAM>
     DPC 5-ACETYLAMINO-4-AMINO-6-(PHENETHYL-PROPYL-CARBAMOYL)-5,
   2 DPC 6-DIHYDRO-4H-PYRAN-2-CARBOXYLIC ACID

>  <Name>
DPC.pdb

>  <RI>
0

>  <Rbt.Current_Directory>
/home/malgorzata/Desktop/rDOCK_IFD/Wyniki/11_neuraminidase/IFD

>  <Rbt.Executable>
rbdock ($Id: //depot/dev/client3/rdock/2013.1/src/exe/rbdock.cxx#4 $)

>  <Rbt.Library>
libRbt.so (2013.1, Build901 2013/11/27)

>  <Rbt.Parameter_File>
/home/malgorzata/Desktop/rDock_2013.1_src/data/scripts/hard_docking.prm

>  <Rbt.Receptor>
cavity.prm

>  <SCORE>
-8.84903

>  <SCORE.INTER>
-1.25923

>  <SCORE.INTER.CONST>
1

>  <SCORE.INTER.POLAR>
-0.995656

>  <SCORE.INTER.REPUL>
0

>  <SCORE.INTER.ROT>
9

>  <SCORE.INTER.VDW>
-12.274

>  <SCORE.INTER.norm>
-0.0449726

>  <SCORE.INTRA>
-1.76267

>  <SCORE.INTRA.DIHEDRAL>
-0.117703

>  <SCORE.INTRA.DIHEDRAL.0>
7.68839

>  <SCORE.INTRA.POLAR>
0

>  <SCORE.INTRA.POLAR.0>
0

>  <SCORE.INTRA.REPUL>
0

>  <SCORE.INTRA.REPUL.0>
0

>  <SCORE.INTRA.VDW>
-1.70382

>  <SCORE.INTRA.VDW.0>
-2.73227

>  <SCORE.INTRA.norm>
-0.0629526

>  <SCORE.RESTR>
0.00566872

>  <SCORE.RESTR.CAVITY>
0.00566872

>  <SCORE.RESTR.norm>
0.000202454

>  <SCORE.SYSTEM>
-5.83279

>  <SCORE.SYSTEM.CONST>
0

>  <SCORE.SYSTEM.DIHEDRAL>
3.49094

>  <SCORE.SYSTEM.POLAR>
-0.57678

>  <SCORE.SYSTEM.REPUL>
0.0900264

>  <SCORE.SYSTEM.VDW>
-6.06734

>  <SCORE.SYSTEM.norm>
-0.208314

>  <SCORE.heavy>
28

>  <SCORE.norm>
-0.316037

$$$$
