S58.pdb
  rDOCK(R)          3D
libRbt.so/2013.1/901 2013/11/27
 28 30  0  0  0  0  0  0  0  0999 V2000
   22.7261   28.5309   26.5595 C   0  0  0  0  0  0
   23.4873   28.1102   27.6074 C   0  0  0  0  0  0
   23.3965   29.7517   26.0251 C   0  0  0  0  0  0
   22.9346   30.6701   24.9334 C   0  0  0  0  0  0
   25.7352   28.7510   28.4269 C   0  0  0  0  0  0
   26.5683   27.7159   27.9837 C   0  0  0  0  0  0
   27.7897   27.5083   28.6070 C   0  0  0  0  0  0
   28.1786   28.3457   29.6779 C   0  0  0  0  0  0
   27.3409   29.3838   30.1191 C   0  0  0  0  0  0
   26.1099   29.5845   29.4897 C   0  0  0  0  0  0
   23.1552   26.9442   28.4820 C   0  0  0  0  0  0
   23.6450   26.9063   29.8123 C   0  0  0  0  0  0
   23.2202   25.8952   30.6942 C   0  0  0  0  0  0
   22.3126   24.9326   30.2604 C   0  0  0  0  0  0
   21.8488   24.9462   28.9404 C   0  0  0  0  0  0
   22.2695   25.9572   28.0444 C   0  0  0  0  0  0
   24.5659   28.9548   27.7408 N   0  0  0  0  0  0
   24.4779   29.9580   26.7262 N   0  0  0  0  0  0
   29.5133   27.0936   31.9136 N   0  0  0  0  0  0
   30.3467   29.3608   30.8332 O   0  0  0  0  0  0
   30.6526   27.4126   29.5688 O   0  0  0  0  0  0
   21.6008   23.7437   31.4802 Br  0  0  0  0  0  0
   23.9843   31.4071   24.4919 F   0  0  0  0  0  0
   21.9358   31.4467   25.3815 F   0  0  0  0  0  0
   22.4831   29.9161   23.9250 F   0  0  0  0  0  0
   29.7888   28.0896   30.4948 S   0  0  0  0  0  0
   30.2641   26.6295   32.3333 H   0  0  0  0  0  0
   28.6097   27.0046   32.2862 H   0  0  0  0  0  0
  1  3  1  0  0  0
  2  1  2  0  0  0
  2 17  1  0  0  0
  3 18  2  0  0  0
  3  4  1  0  0  0
  4 23  1  0  0  0
  4 25  1  0  0  0
  5 17  1  0  0  0
  5  6  2  0  0  0
  7  6  1  0  0  0
  8  7  2  0  0  0
  9 10  2  0  0  0
  9  8  1  0  0  0
 10  5  1  0  0  0
 11  2  1  0  0  0
 12 11  1  0  0  0
 13 12  2  0  0  0
 14 15  2  0  0  0
 14 13  1  0  0  0
 15 16  1  0  0  0
 16 11  2  0  0  0
 17 18  1  0  0  0
 19 28  1  0  0  0
 20 26  2  0  0  0
 22 14  1  0  0  0
 24  4  1  0  0  0
 26  8  1  0  0  0
 26 19  1  0  0  0
 26 21  2  0  0  0
 27 19  1  0  0  0
M  END
>  <CHROM.0>
-137.49809731,100.55487468,-117.98909012

>  <CHROM.1>
-162.22794614,63.88431618,-153.91156416,-95.67513541,161.99540864,24.72293826
27.58100781,28.84500810,2.52513432,0.31355332,2.34807068

>  <FORMUL>
      S58    C16 H11 Br1 F3 N3 O2 S1

>  <HET>
 S58  A 701      28

>  <HETNAM>
     S58 1-PHENYLSULFONAMIDE-3-TRIFLUOROMETHYL-5-PARABROMOPHENYL
   2 S58 PYRAZOLE

>  <Name>
S58.pdb

>  <RI>
0

>  <Rbt.Current_Directory>
/home/malgorzata/Desktop/rDOCK_IFD/Wyniki/3a_COX2

>  <Rbt.Executable>
rbdock ($Id: //depot/dev/client3/rdock/2013.1/src/exe/rbdock.cxx#4 $)

>  <Rbt.Library>
libRbt.so (2013.1, Build901 2013/11/27)

>  <Rbt.Parameter_File>
/home/malgorzata/Desktop/rDock_2013.1_src/data/scripts/soft_docking.prm

>  <Rbt.Receptor>
cavity.prm

>  <SCORE>
-20.8556

>  <SCORE.INTER>
-19.6126

>  <SCORE.INTER.CONST>
1

>  <SCORE.INTER.POLAR>
-1.63547

>  <SCORE.INTER.REPUL>
0

>  <SCORE.INTER.ROT>
5

>  <SCORE.INTER.VDW>
-24.452

>  <SCORE.INTER.norm>
-0.754329

>  <SCORE.INTRA>
-0.491773

>  <SCORE.INTRA.DIHEDRAL>
-1.78743

>  <SCORE.INTRA.DIHEDRAL.0>
18.1022

>  <SCORE.INTRA.POLAR>
0

>  <SCORE.INTRA.POLAR.0>
0

>  <SCORE.INTRA.REPUL>
0

>  <SCORE.INTRA.REPUL.0>
0

>  <SCORE.INTRA.VDW>
-0.134288

>  <SCORE.INTRA.VDW.0>
-2.81782

>  <SCORE.INTRA.norm>
-0.0189144

>  <SCORE.RESTR>
0

>  <SCORE.RESTR.CAVITY>
0

>  <SCORE.RESTR.norm>
0

>  <SCORE.SYSTEM>
-0.751245

>  <SCORE.SYSTEM.CONST>
0

>  <SCORE.SYSTEM.DIHEDRAL>
7.98994

>  <SCORE.SYSTEM.POLAR>
-0.886238

>  <SCORE.SYSTEM.VDW>
-1.73301

>  <SCORE.SYSTEM.norm>
-0.028894

>  <SCORE.heavy>
26

>  <SCORE.norm>
-0.802138

$$$$
S58.pdb
  rDOCK(R)          3D
libRbt.so/2013.1/901 2013/11/27
 28 30  0  0  0  0  0  0  0  0999 V2000
   26.3439   31.6859   31.8186 C   0  0  0  0  0  0
   27.3323   31.5920   30.8866 C   0  0  0  0  0  0
   25.5572   32.9034   31.4661 C   0  0  0  0  0  0
   24.4156   33.5273   32.2117 C   0  0  0  0  0  0
   27.7500   32.7620   28.7438 C   0  0  0  0  0  0
   27.2954   31.8893   27.7471 C   0  0  0  0  0  0
   27.7761   32.0213   26.4529 C   0  0  0  0  0  0
   28.7149   33.0362   26.1567 C   0  0  0  0  0  0
   29.1680   33.9106   27.1587 C   0  0  0  0  0  0
   28.6831   33.7693   28.4612 C   0  0  0  0  0  0
   28.4004   30.5461   30.8864 C   0  0  0  0  0  0
   28.0437   29.1825   31.0428 C   0  0  0  0  0  0
   29.0153   28.1754   30.8947 C   0  0  0  0  0  0
   30.3295   28.5189   30.5887 C   0  0  0  0  0  0
   30.6947   29.8637   30.4630 C   0  0  0  0  0  0
   29.7267   30.8851   30.6107 C   0  0  0  0  0  0
   27.2011   32.6308   29.9932 N   0  0  0  0  0  0
   26.0739   33.4184   30.3838 N   0  0  0  0  0  0
   28.6069   31.9715   23.4730 N   0  0  0  0  0  0
   30.7677   33.1282   24.4705 O   0  0  0  0  0  0
   28.9517   34.5250   23.9816 O   0  0  0  0  0  0
   31.5437   27.1877   30.1871 Br  0  0  0  0  0  0
   24.1309   32.7785   33.3064 F   0  0  0  0  0  0
   23.3520   33.6477   31.4018 F   0  0  0  0  0  0
   24.8009   34.7446   32.6107 F   0  0  0  0  0  0
   29.3424   33.2268   24.4550 S   0  0  0  0  0  0
   27.6398   31.9709   23.3316 H   0  0  0  0  0  0
   29.1641   31.2742   23.0649 H   0  0  0  0  0  0
  1  3  1  0  0  0
  2  1  2  0  0  0
  2 17  1  0  0  0
  3 18  2  0  0  0
  3  4  1  0  0  0
  4 23  1  0  0  0
  4 25  1  0  0  0
  5 17  1  0  0  0
  5  6  2  0  0  0
  7  6  1  0  0  0
  8  7  2  0  0  0
  9 10  2  0  0  0
  9  8  1  0  0  0
 10  5  1  0  0  0
 11  2  1  0  0  0
 12 11  1  0  0  0
 13 12  2  0  0  0
 14 15  2  0  0  0
 14 13  1  0  0  0
 15 16  1  0  0  0
 16 11  2  0  0  0
 17 18  1  0  0  0
 19 28  1  0  0  0
 20 26  2  0  0  0
 22 14  1  0  0  0
 24  4  1  0  0  0
 26  8  1  0  0  0
 26 19  1  0  0  0
 26 21  2  0  0  0
 27 19  1  0  0  0
M  END
>  <CHROM.0>
-159.81545481,-144.30702174,-159.80903040

>  <CHROM.1>
-1.97677134,67.56906827,48.88688085,-1.43665072,64.52433104,28.34515643,31.41625535
29.17810209,3.11451452,0.74130653,-0.99883164

>  <FORMUL>
      S58    C16 H11 Br1 F3 N3 O2 S1

>  <HET>
 S58  A 701      28

>  <HETNAM>
     S58 1-PHENYLSULFONAMIDE-3-TRIFLUOROMETHYL-5-PARABROMOPHENYL
   2 S58 PYRAZOLE

>  <Name>
S58.pdb

>  <RI>
0

>  <Rbt.Current_Directory>
/home/malgorzata/Desktop/rDOCK_IFD/Wyniki/3a_COX2

>  <Rbt.Executable>
rbdock ($Id: //depot/dev/client3/rdock/2013.1/src/exe/rbdock.cxx#4 $)

>  <Rbt.Library>
libRbt.so (2013.1, Build901 2013/11/27)

>  <Rbt.Parameter_File>
/home/malgorzata/Desktop/rDock_2013.1_src/data/scripts/soft_docking.prm

>  <Rbt.Receptor>
cavity.prm

>  <SCORE>
-20.0482

>  <SCORE.INTER>
-19.1781

>  <SCORE.INTER.CONST>
1

>  <SCORE.INTER.POLAR>
-1.18255

>  <SCORE.INTER.REPUL>
0

>  <SCORE.INTER.ROT>
5

>  <SCORE.INTER.VDW>
-25.5574

>  <SCORE.INTER.norm>
-0.737619

>  <SCORE.INTRA>
0.00781413

>  <SCORE.INTRA.DIHEDRAL>
3.07591

>  <SCORE.INTRA.DIHEDRAL.0>
18.1022

>  <SCORE.INTRA.POLAR>
0

>  <SCORE.INTRA.POLAR.0>
0

>  <SCORE.INTRA.REPUL>
0

>  <SCORE.INTRA.REPUL.0>
0

>  <SCORE.INTRA.VDW>
-0.607368

>  <SCORE.INTRA.VDW.0>
-2.81782

>  <SCORE.INTRA.norm>
0.000300543

>  <SCORE.RESTR>
0.610151

>  <SCORE.RESTR.CAVITY>
0.610151

>  <SCORE.RESTR.norm>
0.0234673

>  <SCORE.SYSTEM>
-1.48811

>  <SCORE.SYSTEM.CONST>
0

>  <SCORE.SYSTEM.DIHEDRAL>
2.63816

>  <SCORE.SYSTEM.POLAR>
-0.353414

>  <SCORE.SYSTEM.REPUL>
0.00163712

>  <SCORE.SYSTEM.VDW>
-1.61377

>  <SCORE.SYSTEM.norm>
-0.0572352

>  <SCORE.heavy>
26

>  <SCORE.norm>
-0.771086

$$$$
S58.pdb
  rDOCK(R)          3D
libRbt.so/2013.1/901 2013/11/27
 28 30  0  0  0  0  0  0  0  0999 V2000
   25.1283   29.5330   26.8195 C   0  0  0  0  0  0
   25.9495   30.1629   27.7044 C   0  0  0  0  0  0
   24.2282   30.5869   26.2679 C   0  0  0  0  0  0
   23.0723   30.4302   25.3256 C   0  0  0  0  0  0
   26.3846   32.5503   28.2003 C   0  0  0  0  0  0
   26.9969   33.3869   27.2585 C   0  0  0  0  0  0
   27.7119   34.4938   27.6912 C   0  0  0  0  0  0
   27.8097   34.7645   29.0755 C   0  0  0  0  0  0
   27.1932   33.9239   30.0174 C   0  0  0  0  0  0
   26.4784   32.8081   29.5750 C   0  0  0  0  0  0
   26.9801   29.4758   28.5415 C   0  0  0  0  0  0
   27.5190   28.2371   28.1097 C   0  0  0  0  0  0
   28.5940   27.6525   28.8047 C   0  0  0  0  0  0
   29.1330   28.2948   29.9161 C   0  0  0  0  0  0
   28.5865   29.5019   30.3656 C   0  0  0  0  0  0
   27.5050   30.0988   29.6756 C   0  0  0  0  0  0
   25.6394   31.5038   27.7219 N   0  0  0  0  0  0
   24.5682   31.7282   26.8022 N   0  0  0  0  0  0
   30.0466   36.5070   28.5210 N   0  0  0  0  0  0
   29.2150   35.9791   30.9769 O   0  0  0  0  0  0
   27.8357   37.3443   29.6649 O   0  0  0  0  0  0
   30.6725   27.6305   30.6883 Br  0  0  0  0  0  0
   22.1312   31.3650   25.6092 F   0  0  0  0  0  0
   22.5778   29.1853   25.4118 F   0  0  0  0  0  0
   23.5235   30.6360   24.0832 F   0  0  0  0  0  0
   28.7356   36.2254   29.6537 S   0  0  0  0  0  0
   30.2025   35.8740   27.7928 H   0  0  0  0  0  0
   30.6196   37.2981   28.6161 H   0  0  0  0  0  0
  1  3  1  0  0  0
  2  1  2  0  0  0
  2 17  1  0  0  0
  3 18  2  0  0  0
  3  4  1  0  0  0
  4 23  1  0  0  0
  4 25  1  0  0  0
  5 17  1  0  0  0
  5  6  2  0  0  0
  7  6  1  0  0  0
  8  7  2  0  0  0
  9 10  2  0  0  0
  9  8  1  0  0  0
 10  5  1  0  0  0
 11  2  1  0  0  0
 12 11  1  0  0  0
 13 12  2  0  0  0
 14 15  2  0  0  0
 14 13  1  0  0  0
 15 16  1  0  0  0
 16 11  2  0  0  0
 17 18  1  0  0  0
 19 28  1  0  0  0
 20 26  2  0  0  0
 22 14  1  0  0  0
 24  4  1  0  0  0
 26  8  1  0  0  0
 26 19  1  0  0  0
 26 21  2  0  0  0
 27 19  1  0  0  0
M  END
>  <CHROM.0>
-79.00191416,167.72480575,177.90426169

>  <CHROM.1>
147.43727009,105.71577229,24.48505005,-31.96257362,-4.93200315,27.27278814
31.33641464,28.51706374,2.67497856,-0.62919808,0.02982182

>  <FORMUL>
      S58    C16 H11 Br1 F3 N3 O2 S1

>  <HET>
 S58  A 701      28

>  <HETNAM>
     S58 1-PHENYLSULFONAMIDE-3-TRIFLUOROMETHYL-5-PARABROMOPHENYL
   2 S58 PYRAZOLE

>  <Name>
S58.pdb

>  <RI>
0

>  <Rbt.Current_Directory>
/home/malgorzata/Desktop/rDOCK_IFD/Wyniki/3a_COX2

>  <Rbt.Executable>
rbdock ($Id: //depot/dev/client3/rdock/2013.1/src/exe/rbdock.cxx#4 $)

>  <Rbt.Library>
libRbt.so (2013.1, Build901 2013/11/27)

>  <Rbt.Parameter_File>
/home/malgorzata/Desktop/rDock_2013.1_src/data/scripts/soft_docking.prm

>  <Rbt.Receptor>
cavity.prm

>  <SCORE>
-18.8596

>  <SCORE.INTER>
-16.9964

>  <SCORE.INTER.CONST>
1

>  <SCORE.INTER.POLAR>
-1.20088

>  <SCORE.INTER.REPUL>
0

>  <SCORE.INTER.ROT>
5

>  <SCORE.INTER.VDW>
-23.3134

>  <SCORE.INTER.norm>
-0.65371

>  <SCORE.INTRA>
-0.0492402

>  <SCORE.INTRA.DIHEDRAL>
-2.97463

>  <SCORE.INTRA.DIHEDRAL.0>
18.1022

>  <SCORE.INTRA.POLAR>
0

>  <SCORE.INTRA.POLAR.0>
0

>  <SCORE.INTRA.REPUL>
0

>  <SCORE.INTRA.REPUL.0>
0

>  <SCORE.INTRA.VDW>
0.545686

>  <SCORE.INTRA.VDW.0>
-2.81782

>  <SCORE.INTRA.norm>
-0.00189385

>  <SCORE.RESTR>
0.310965

>  <SCORE.RESTR.CAVITY>
0.310965

>  <SCORE.RESTR.norm>
0.0119602

>  <SCORE.SYSTEM>
-2.12488

>  <SCORE.SYSTEM.CONST>
0

>  <SCORE.SYSTEM.DIHEDRAL>
0.804674

>  <SCORE.SYSTEM.POLAR>
-0.236831

>  <SCORE.SYSTEM.VDW>
-1.72199

>  <SCORE.SYSTEM.norm>
-0.0817262

>  <SCORE.heavy>
26

>  <SCORE.norm>
-0.725369

$$$$
S58.pdb
  rDOCK(R)          3D
libRbt.so/2013.1/901 2013/11/27
 28 30  0  0  0  0  0  0  0  0999 V2000
   22.4911   28.5130   26.1649 C   0  0  0  0  0  0
   23.2617   28.4095   27.2829 C   0  0  0  0  0  0
   23.1789   29.4956   25.2779 C   0  0  0  0  0  0
   22.7179   30.0518   23.9640 C   0  0  0  0  0  0
   25.5381   29.2076   27.8452 C   0  0  0  0  0  0
   25.5722   29.9055   29.0590 C   0  0  0  0  0  0
   26.7204   29.8682   29.8360 C   0  0  0  0  0  0
   27.8385   29.1239   29.3945 C   0  0  0  0  0  0
   27.8005   28.4240   28.1769 C   0  0  0  0  0  0
   26.6424   28.4695   27.3969 C   0  0  0  0  0  0
   22.9195   27.5730   28.4737 C   0  0  0  0  0  0
   22.7234   26.1775   28.3147 C   0  0  0  0  0  0
   22.5503   25.3542   29.4428 C   0  0  0  0  0  0
   22.5767   25.9110   30.7186 C   0  0  0  0  0  0
   22.7393   27.2912   30.8813 C   0  0  0  0  0  0
   22.9134   28.1291   29.7546 C   0  0  0  0  0  0
   24.3613   29.2253   27.1421 N   0  0  0  0  0  0
   24.2774   29.8756   25.8718 N   0  0  0  0  0  0
   30.7183   28.8992   29.3302 N   0  0  0  0  0  0
   29.2507   27.9545   31.3191 O   0  0  0  0  0  0
   29.4361   30.2841   31.1567 O   0  0  0  0  0  0
   22.5634   24.7997   32.1925 Br  0  0  0  0  0  0
   21.3886   29.8229   23.8205 F   0  0  0  0  0  0
   23.4267   29.5069   22.9628 F   0  0  0  0  0  0
   22.9283   31.3728   23.9797 F   0  0  0  0  0  0
   29.3480   29.0572   30.4157 S   0  0  0  0  0  0
   31.1650   29.7007   28.9936 H   0  0  0  0  0  0
   31.0370   28.0099   29.0639 H   0  0  0  0  0  0
  1  3  1  0  0  0
  2  1  2  0  0  0
  2 17  1  0  0  0
  3 18  2  0  0  0
  3  4  1  0  0  0
  4 23  1  0  0  0
  4 25  1  0  0  0
  5 17  1  0  0  0
  5  6  2  0  0  0
  7  6  1  0  0  0
  8  7  2  0  0  0
  9 10  2  0  0  0
  9  8  1  0  0  0
 10  5  1  0  0  0
 11  2  1  0  0  0
 12 11  1  0  0  0
 13 12  2  0  0  0
 14 15  2  0  0  0
 14 13  1  0  0  0
 15 16  1  0  0  0
 16 11  2  0  0  0
 17 18  1  0  0  0
 19 28  1  0  0  0
 20 26  2  0  0  0
 22 14  1  0  0  0
 24  4  1  0  0  0
 26  8  1  0  0  0
 26 19  1  0  0  0
 26 21  2  0  0  0
 27 19  1  0  0  0
M  END
>  <CHROM.0>
36.74185287,78.09990343,-167.30873806

>  <CHROM.1>
16.61893652,-84.95548850,58.44941968,-148.82828928,90.34824359,24.71395538
28.10334006,28.66868388,1.86889226,-0.36831318,-1.01200912

>  <FORMUL>
      S58    C16 H11 Br1 F3 N3 O2 S1

>  <HET>
 S58  A 701      28

>  <HETNAM>
     S58 1-PHENYLSULFONAMIDE-3-TRIFLUOROMETHYL-5-PARABROMOPHENYL
   2 S58 PYRAZOLE

>  <Name>
S58.pdb

>  <RI>
0

>  <Rbt.Current_Directory>
/home/malgorzata/Desktop/rDOCK_IFD/Wyniki/3a_COX2

>  <Rbt.Executable>
rbdock ($Id: //depot/dev/client3/rdock/2013.1/src/exe/rbdock.cxx#4 $)

>  <Rbt.Library>
libRbt.so (2013.1, Build901 2013/11/27)

>  <Rbt.Parameter_File>
/home/malgorzata/Desktop/rDock_2013.1_src/data/scripts/soft_docking.prm

>  <Rbt.Receptor>
cavity.prm

>  <SCORE>
-26.2567

>  <SCORE.INTER>
-24.2291

>  <SCORE.INTER.CONST>
1

>  <SCORE.INTER.POLAR>
-2.30812

>  <SCORE.INTER.REPUL>
0.0378611

>  <SCORE.INTER.ROT>
5

>  <SCORE.INTER.VDW>
-26.9708

>  <SCORE.INTER.norm>
-0.931889

>  <SCORE.INTRA>
0.418597

>  <SCORE.INTRA.DIHEDRAL>
5.23361

>  <SCORE.INTRA.DIHEDRAL.0>
18.1022

>  <SCORE.INTRA.POLAR>
0

>  <SCORE.INTRA.POLAR.0>
0

>  <SCORE.INTRA.REPUL>
0

>  <SCORE.INTRA.REPUL.0>
0

>  <SCORE.INTRA.VDW>
-0.628126

>  <SCORE.INTRA.VDW.0>
-2.81782

>  <SCORE.INTRA.norm>
0.0160999

>  <SCORE.RESTR>
0.486412

>  <SCORE.RESTR.CAVITY>
0.486412

>  <SCORE.RESTR.norm>
0.0187081

>  <SCORE.SYSTEM>
-2.93258

>  <SCORE.SYSTEM.CONST>
0

>  <SCORE.SYSTEM.DIHEDRAL>
1.51597

>  <SCORE.SYSTEM.POLAR>
-0.564078

>  <SCORE.SYSTEM.VDW>
-1.7727

>  <SCORE.SYSTEM.norm>
-0.112791

>  <SCORE.heavy>
26

>  <SCORE.norm>
-1.00987

$$$$
S58.pdb
  rDOCK(R)          3D
libRbt.so/2013.1/901 2013/11/27
 28 30  0  0  0  0  0  0  0  0999 V2000
   23.3902   29.0074   30.2200 C   0  0  0  0  0  0
   24.0146   29.4324   29.0870 C   0  0  0  0  0  0
   24.4520   28.9008   31.2624 C   0  0  0  0  0  0
   24.3354   28.3891   32.6670 C   0  0  0  0  0  0
   26.2863   30.3121   28.6388 C   0  0  0  0  0  0
   27.6262   29.9298   28.7806 C   0  0  0  0  0  0
   28.6017   30.5693   28.0302 C   0  0  0  0  0  0
   28.2303   31.5949   27.1306 C   0  0  0  0  0  0
   26.8850   31.9750   26.9900 C   0  0  0  0  0  0
   25.9080   31.3299   27.7522 C   0  0  0  0  0  0
   23.3390   29.6212   27.7668 C   0  0  0  0  0  0
   22.3329   30.6114   27.6317 C   0  0  0  0  0  0
   21.7945   30.9050   26.3651 C   0  0  0  0  0  0
   22.2550   30.2247   25.2409 C   0  0  0  0  0  0
   23.2257   29.2254   25.3712 C   0  0  0  0  0  0
   23.7736   28.9208   26.6396 C   0  0  0  0  0  0
   25.3525   29.6105   29.3567 N   0  0  0  0  0  0
   25.5812   29.2796   30.7285 N   0  0  0  0  0  0
   28.8828   32.5801   24.4940 N   0  0  0  0  0  0
   30.7102   31.6680   26.1765 O   0  0  0  0  0  0
   29.7307   33.7313   26.6971 O   0  0  0  0  0  0
   21.6997   30.7640   23.5651 Br  0  0  0  0  0  0
   23.7160   27.1823   32.6559 F   0  0  0  0  0  0
   23.6755   29.2792   33.4246 F   0  0  0  0  0  0
   25.5722   28.2340   33.1525 F   0  0  0  0  0  0
   29.5038   32.4321   26.1291 S   0  0  0  0  0  0
   27.9191   32.5395   24.3360 H   0  0  0  0  0  0
   29.4998   32.7056   23.7412 H   0  0  0  0  0  0
  1  3  1  0  0  0
  2  1  2  0  0  0
  2 17  1  0  0  0
  3 18  2  0  0  0
  3  4  1  0  0  0
  4 23  1  0  0  0
  4 25  1  0  0  0
  5 17  1  0  0  0
  5  6  2  0  0  0
  7  6  1  0  0  0
  8  7  2  0  0  0
  9 10  2  0  0  0
  9  8  1  0  0  0
 10  5  1  0  0  0
 11  2  1  0  0  0
 12 11  1  0  0  0
 13 12  2  0  0  0
 14 15  2  0  0  0
 14 13  1  0  0  0
 15 16  1  0  0  0
 16 11  2  0  0  0
 17 18  1  0  0  0
 19 28  1  0  0  0
 20 26  2  0  0  0
 22 14  1  0  0  0
 24  4  1  0  0  0
 26  8  1  0  0  0
 26 19  1  0  0  0
 26 21  2  0  0  0
 27 19  1  0  0  0
M  END
>  <CHROM.0>
39.43744076,95.43374835,-162.74324974

>  <CHROM.1>
50.02839505,-154.83654881,64.57930555,136.14809397,21.64225043,25.08940460
30.36842832,27.64101113,1.53695440,0.29264114,1.91964649

>  <FORMUL>
      S58    C16 H11 Br1 F3 N3 O2 S1

>  <HET>
 S58  A 701      28

>  <HETNAM>
     S58 1-PHENYLSULFONAMIDE-3-TRIFLUOROMETHYL-5-PARABROMOPHENYL
   2 S58 PYRAZOLE

>  <Name>
S58.pdb

>  <RI>
0

>  <Rbt.Current_Directory>
/home/malgorzata/Desktop/rDOCK_IFD/Wyniki/3a_COX2

>  <Rbt.Executable>
rbdock ($Id: //depot/dev/client3/rdock/2013.1/src/exe/rbdock.cxx#4 $)

>  <Rbt.Library>
libRbt.so (2013.1, Build901 2013/11/27)

>  <Rbt.Parameter_File>
/home/malgorzata/Desktop/rDock_2013.1_src/data/scripts/soft_docking.prm

>  <Rbt.Receptor>
cavity.prm

>  <SCORE>
-20.7012

>  <SCORE.INTER>
-17.8659

>  <SCORE.INTER.CONST>
1

>  <SCORE.INTER.POLAR>
-0.410616

>  <SCORE.INTER.REPUL>
0

>  <SCORE.INTER.ROT>
5

>  <SCORE.INTER.VDW>
-26.8698

>  <SCORE.INTER.norm>
-0.687149

>  <SCORE.INTRA>
-0.558038

>  <SCORE.INTRA.DIHEDRAL>
-1.3298

>  <SCORE.INTRA.DIHEDRAL.0>
18.1022

>  <SCORE.INTRA.POLAR>
0

>  <SCORE.INTRA.POLAR.0>
0

>  <SCORE.INTRA.REPUL>
0

>  <SCORE.INTRA.REPUL.0>
0

>  <SCORE.INTRA.VDW>
-0.292078

>  <SCORE.INTRA.VDW.0>
-2.81782

>  <SCORE.INTRA.norm>
-0.021463

>  <SCORE.RESTR>
0.407827

>  <SCORE.RESTR.CAVITY>
0.407827

>  <SCORE.RESTR.norm>
0.0156857

>  <SCORE.SYSTEM>
-2.68514

>  <SCORE.SYSTEM.CONST>
0

>  <SCORE.SYSTEM.DIHEDRAL>
2.12159

>  <SCORE.SYSTEM.POLAR>
-0.583918

>  <SCORE.SYSTEM.VDW>
-1.76061

>  <SCORE.SYSTEM.norm>
-0.103274

>  <SCORE.heavy>
26

>  <SCORE.norm>
-0.796201

$$$$
S58.pdb
  rDOCK(R)          3D
libRbt.so/2013.1/901 2013/11/27
 28 30  0  0  0  0  0  0  0  0999 V2000
   27.0867   31.2812   32.3708 C   0  0  0  0  0  0
   27.8827   31.1704   31.2716 C   0  0  0  0  0  0
   26.2184   32.4711   32.1347 C   0  0  0  0  0  0
   25.2239   33.1019   33.0628 C   0  0  0  0  0  0
   27.8589   32.2682   29.0513 C   0  0  0  0  0  0
   28.0539   33.5519   28.5260 C   0  0  0  0  0  0
   28.4171   33.6972   27.1954 C   0  0  0  0  0  0
   28.5891   32.5485   26.3891 C   0  0  0  0  0  0
   28.3939   31.2623   26.9196 C   0  0  0  0  0  0
   28.0237   31.1233   28.2595 C   0  0  0  0  0  0
   28.9564   30.1440   31.1025 C   0  0  0  0  0  0
   28.6033   28.7751   30.9900 C   0  0  0  0  0  0
   29.5841   27.8146   30.6806 C   0  0  0  0  0  0
   30.9037   28.2104   30.4793 C   0  0  0  0  0  0
   31.2645   29.5551   30.6187 C   0  0  0  0  0  0
   30.2874   30.5297   30.9304 C   0  0  0  0  0  0
   27.5598   32.1733   30.3859 N   0  0  0  0  0  0
   26.5083   32.9550   30.9576 N   0  0  0  0  0  0
   28.4722   34.2743   24.0748 N   0  0  0  0  0  0
   28.5459   31.6354   23.8930 O   0  0  0  0  0  0
   30.5148   32.7026   24.5804 O   0  0  0  0  0  0
   32.1353   26.9795   29.8663 Br  0  0  0  0  0  0
   25.0110   32.2792   34.1201 F   0  0  0  0  0  0
   24.0858   33.3664   32.4021 F   0  0  0  0  0  0
   25.7473   34.2494   33.5084 F   0  0  0  0  0  0
   29.0804   32.7285   24.6421 S   0  0  0  0  0  0
   27.6688   34.6570   24.4790 H   0  0  0  0  0  0
   28.9379   34.7543   23.3566 H   0  0  0  0  0  0
  1  3  1  0  0  0
  2  1  2  0  0  0
  2 17  1  0  0  0
  3 18  2  0  0  0
  3  4  1  0  0  0
  4 23  1  0  0  0
  4 25  1  0  0  0
  5 17  1  0  0  0
  5  6  2  0  0  0
  7  6  1  0  0  0
  8  7  2  0  0  0
  9 10  2  0  0  0
  9  8  1  0  0  0
 10  5  1  0  0  0
 11  2  1  0  0  0
 12 11  1  0  0  0
 13 12  2  0  0  0
 14 15  2  0  0  0
 14 13  1  0  0  0
 15 16  1  0  0  0
 16 11  2  0  0  0
 17 18  1  0  0  0
 19 28  1  0  0  0
 20 26  2  0  0  0
 22 14  1  0  0  0
 24  4  1  0  0  0
 26  8  1  0  0  0
 26 19  1  0  0  0
 26 21  2  0  0  0
 27 19  1  0  0  0
M  END
>  <CHROM.0>
-43.52178676,165.78568188,-32.01023397

>  <CHROM.1>
-11.62515300,-148.24559574,66.78873787,-28.68239827,-28.19583396,28.70878774
31.03668504,29.42519203,-2.87330303,0.79511111,-1.12570837

>  <FORMUL>
      S58    C16 H11 Br1 F3 N3 O2 S1

>  <HET>
 S58  A 701      28

>  <HETNAM>
     S58 1-PHENYLSULFONAMIDE-3-TRIFLUOROMETHYL-5-PARABROMOPHENYL
   2 S58 PYRAZOLE

>  <Name>
S58.pdb

>  <RI>
0

>  <Rbt.Current_Directory>
/home/malgorzata/Desktop/rDOCK_IFD/Wyniki/3a_COX2

>  <Rbt.Executable>
rbdock ($Id: //depot/dev/client3/rdock/2013.1/src/exe/rbdock.cxx#4 $)

>  <Rbt.Library>
libRbt.so (2013.1, Build901 2013/11/27)

>  <Rbt.Parameter_File>
/home/malgorzata/Desktop/rDock_2013.1_src/data/scripts/soft_docking.prm

>  <Rbt.Receptor>
cavity.prm

>  <SCORE>
-18.0292

>  <SCORE.INTER>
-16.4233

>  <SCORE.INTER.CONST>
1

>  <SCORE.INTER.POLAR>
-0.663027

>  <SCORE.INTER.REPUL>
0

>  <SCORE.INTER.ROT>
5

>  <SCORE.INTER.VDW>
-24.569

>  <SCORE.INTER.norm>
-0.631665

>  <SCORE.INTRA>
-0.357752

>  <SCORE.INTRA.DIHEDRAL>
0.43937

>  <SCORE.INTRA.DIHEDRAL.0>
18.1022

>  <SCORE.INTRA.POLAR>
0

>  <SCORE.INTRA.POLAR.0>
0

>  <SCORE.INTRA.REPUL>
0

>  <SCORE.INTRA.REPUL.0>
0

>  <SCORE.INTRA.VDW>
-0.445626

>  <SCORE.INTRA.VDW.0>
-2.81782

>  <SCORE.INTRA.norm>
-0.0137597

>  <SCORE.RESTR>
0.317112

>  <SCORE.RESTR.CAVITY>
0.317112

>  <SCORE.RESTR.norm>
0.0121966

>  <SCORE.SYSTEM>
-1.56523

>  <SCORE.SYSTEM.CONST>
0

>  <SCORE.SYSTEM.DIHEDRAL>
4.05878

>  <SCORE.SYSTEM.POLAR>
-0.619798

>  <SCORE.SYSTEM.VDW>
-1.4873

>  <SCORE.SYSTEM.norm>
-0.060201

>  <SCORE.heavy>
26

>  <SCORE.norm>
-0.693429

$$$$
S58.pdb
  rDOCK(R)          3D
libRbt.so/2013.1/901 2013/11/27
 28 30  0  0  0  0  0  0  0  0999 V2000
   23.1863   26.9729   29.2776 C   0  0  0  0  0  0
   24.0450   28.0298   29.2779 C   0  0  0  0  0  0
   22.6194   26.9009   27.8996 C   0  0  0  0  0  0
   21.5552   25.9852   27.3730 C   0  0  0  0  0  0
   24.9853   29.4427   27.4739 C   0  0  0  0  0  0
   24.5458   30.7254   27.1227 C   0  0  0  0  0  0
   25.4549   31.6453   26.6218 C   0  0  0  0  0  0
   26.8123   31.2773   26.4759 C   0  0  0  0  0  0
   27.2499   29.9901   26.8303 C   0  0  0  0  0  0
   26.3281   29.0670   27.3300 C   0  0  0  0  0  0
   24.7978   28.5099   30.4770 C   0  0  0  0  0  0
   24.1029   28.7455   31.6905 C   0  0  0  0  0  0
   24.8144   29.0513   32.8655 C   0  0  0  0  0  0
   26.2049   29.1176   32.8371 C   0  0  0  0  0  0
   26.8950   28.9162   31.6367 C   0  0  0  0  0  0
   26.1904   28.6091   30.4488 C   0  0  0  0  0  0
   24.0621   28.5891   28.0204 N   0  0  0  0  0  0
   23.1681   27.8472   27.1875 N   0  0  0  0  0  0
   29.3851   32.5102   26.9321 N   0  0  0  0  0  0
   27.3883   33.7626   25.7295 O   0  0  0  0  0  0
   28.4331   32.0433   24.5293 O   0  0  0  0  0  0
   27.1353   29.3066   34.4202 Br  0  0  0  0  0  0
   21.7805   25.7439   26.0573 F   0  0  0  0  0  0
   20.3440   26.5260   27.5786 F   0  0  0  0  0  0
   21.6375   24.8304   28.0431 F   0  0  0  0  0  0
   28.0181   32.4841   25.8314 S   0  0  0  0  0  0
   30.2805   32.6988   26.5886 H   0  0  0  0  0  0
   29.2515   32.3388   27.8892 H   0  0  0  0  0  0
  1  3  1  0  0  0
  2  1  2  0  0  0
  2 17  1  0  0  0
  3 18  2  0  0  0
  3  4  1  0  0  0
  4 23  1  0  0  0
  4 25  1  0  0  0
  5 17  1  0  0  0
  5  6  2  0  0  0
  7  6  1  0  0  0
  8  7  2  0  0  0
  9 10  2  0  0  0
  9  8  1  0  0  0
 10  5  1  0  0  0
 11  2  1  0  0  0
 12 11  1  0  0  0
 13 12  2  0  0  0
 14 15  2  0  0  0
 14 13  1  0  0  0
 15 16  1  0  0  0
 16 11  2  0  0  0
 17 18  1  0  0  0
 19 28  1  0  0  0
 20 26  2  0  0  0
 22 14  1  0  0  0
 24  4  1  0  0  0
 26  8  1  0  0  0
 26 19  1  0  0  0
 26 21  2  0  0  0
 27 19  1  0  0  0
M  END
>  <CHROM.0>
156.40442398,111.53362518,138.19528635

>  <CHROM.1>
-149.38472796,-116.59006468,-50.13852356,129.73159916,148.72715034,25.40449705
29.21948692,29.12875898,1.48426587,0.72250543,1.82851558

>  <FORMUL>
      S58    C16 H11 Br1 F3 N3 O2 S1

>  <HET>
 S58  A 701      28

>  <HETNAM>
     S58 1-PHENYLSULFONAMIDE-3-TRIFLUOROMETHYL-5-PARABROMOPHENYL
   2 S58 PYRAZOLE

>  <Name>
S58.pdb

>  <RI>
0

>  <Rbt.Current_Directory>
/home/malgorzata/Desktop/rDOCK_IFD/Wyniki/3a_COX2

>  <Rbt.Executable>
rbdock ($Id: //depot/dev/client3/rdock/2013.1/src/exe/rbdock.cxx#4 $)

>  <Rbt.Library>
libRbt.so (2013.1, Build901 2013/11/27)

>  <Rbt.Parameter_File>
/home/malgorzata/Desktop/rDock_2013.1_src/data/scripts/soft_docking.prm

>  <Rbt.Receptor>
cavity.prm

>  <SCORE>
-13.6258

>  <SCORE.INTER>
-14.1629

>  <SCORE.INTER.CONST>
1

>  <SCORE.INTER.POLAR>
-0.928622

>  <SCORE.INTER.REPUL>
0.0314478

>  <SCORE.INTER.ROT>
5

>  <SCORE.INTER.VDW>
-21.5629

>  <SCORE.INTER.norm>
-0.544729

>  <SCORE.INTRA>
0.53589

>  <SCORE.INTRA.DIHEDRAL>
4.73898

>  <SCORE.INTRA.DIHEDRAL.0>
18.1022

>  <SCORE.INTRA.POLAR>
0

>  <SCORE.INTRA.POLAR.0>
0

>  <SCORE.INTRA.REPUL>
0

>  <SCORE.INTRA.REPUL.0>
0

>  <SCORE.INTRA.VDW>
-0.411905

>  <SCORE.INTRA.VDW.0>
-2.81782

>  <SCORE.INTRA.norm>
0.0206112

>  <SCORE.RESTR>
0

>  <SCORE.RESTR.CAVITY>
0

>  <SCORE.RESTR.norm>
0

>  <SCORE.SYSTEM>
0.00127433

>  <SCORE.SYSTEM.CONST>
0

>  <SCORE.SYSTEM.DIHEDRAL>
6.446

>  <SCORE.SYSTEM.POLAR>
-0.331562

>  <SCORE.SYSTEM.VDW>
-2.09441

>  <SCORE.SYSTEM.norm>
4.90128e-05

>  <SCORE.heavy>
26

>  <SCORE.norm>
-0.524069

$$$$
S58.pdb
  rDOCK(R)          3D
libRbt.so/2013.1/901 2013/11/27
 28 30  0  0  0  0  0  0  0  0999 V2000
   25.1353   31.9320   27.7775 C   0  0  0  0  0  0
   25.2260   30.5757   27.8583 C   0  0  0  0  0  0
   23.9057   32.2178   26.9828 C   0  0  0  0  0  0
   23.3828   33.5423   26.5130 C   0  0  0  0  0  0
   23.6616   28.7414   27.2899 C   0  0  0  0  0  0
   23.8047   28.0813   28.5169 C   0  0  0  0  0  0
   23.2716   26.8107   28.6750 C   0  0  0  0  0  0
   22.5884   26.2011   27.5976 C   0  0  0  0  0  0
   22.4456   26.8665   26.3685 C   0  0  0  0  0  0
   22.9889   28.1443   26.2147 C   0  0  0  0  0  0
   26.3462   29.8389   28.5195 C   0  0  0  0  0  0
   26.7009   28.5457   28.0582 C   0  0  0  0  0  0
   27.8446   27.9021   28.5664 C   0  0  0  0  0  0
   28.6326   28.5394   29.5211 C   0  0  0  0  0  0
   28.2715   29.8025   30.0029 C   0  0  0  0  0  0
   27.1234   30.4589   29.5001 C   0  0  0  0  0  0
   24.1524   30.0184   27.2015 N   0  0  0  0  0  0
   23.3465   31.0778   26.6803 N   0  0  0  0  0  0
   22.1388   23.6567   26.3047 N   0  0  0  0  0  0
   20.4818   24.6619   28.1064 O   0  0  0  0  0  0
   22.5512   23.8908   28.8879 O   0  0  0  0  0  0
   30.2400   27.7819   30.0212 Br  0  0  0  0  0  0
   22.5921   33.3538   25.4270 F   0  0  0  0  0  0
   24.4059   34.3688   26.2451 F   0  0  0  0  0  0
   22.6444   34.0659   27.4978 F   0  0  0  0  0  0
   21.8717   24.5364   27.8000 S   0  0  0  0  0  0
   21.5517   23.8127   25.5390 H   0  0  0  0  0  0
   22.8760   23.0125   26.2360 H   0  0  0  0  0  0
  1  3  1  0  0  0
  2  1  2  0  0  0
  2 17  1  0  0  0
  3 18  2  0  0  0
  3  4  1  0  0  0
  4 23  1  0  0  0
  4 25  1  0  0  0
  5 17  1  0  0  0
  5  6  2  0  0  0
  7  6  1  0  0  0
  8  7  2  0  0  0
  9 10  2  0  0  0
  9  8  1  0  0  0
 10  5  1  0  0  0
 11  2  1  0  0  0
 12 11  1  0  0  0
 13 12  2  0  0  0
 14 15  2  0  0  0
 14 13  1  0  0  0
 15 16  1  0  0  0
 16 11  2  0  0  0
 17 18  1  0  0  0
 19 28  1  0  0  0
 20 26  2  0  0  0
 22 14  1  0  0  0
 24  4  1  0  0  0
 26  8  1  0  0  0
 26 19  1  0  0  0
 26 21  2  0  0  0
 27 19  1  0  0  0
M  END
>  <CHROM.0>
59.97869355,57.40738984,-42.99179630

>  <CHROM.1>
155.98299276,31.01391187,-150.88797816,-140.84677830,-79.77162170,25.09635945
28.76379616,28.05109435,0.07160801,-0.35876394,-0.18096516

>  <FORMUL>
      S58    C16 H11 Br1 F3 N3 O2 S1

>  <HET>
 S58  A 701      28

>  <HETNAM>
     S58 1-PHENYLSULFONAMIDE-3-TRIFLUOROMETHYL-5-PARABROMOPHENYL
   2 S58 PYRAZOLE

>  <Name>
S58.pdb

>  <RI>
0

>  <Rbt.Current_Directory>
/home/malgorzata/Desktop/rDOCK_IFD/Wyniki/3a_COX2

>  <Rbt.Executable>
rbdock ($Id: //depot/dev/client3/rdock/2013.1/src/exe/rbdock.cxx#4 $)

>  <Rbt.Library>
libRbt.so (2013.1, Build901 2013/11/27)

>  <Rbt.Parameter_File>
/home/malgorzata/Desktop/rDock_2013.1_src/data/scripts/soft_docking.prm

>  <Rbt.Receptor>
cavity.prm

>  <SCORE>
-24.8104

>  <SCORE.INTER>
-20.496

>  <SCORE.INTER.CONST>
1

>  <SCORE.INTER.POLAR>
-1.54813

>  <SCORE.INTER.REPUL>
0

>  <SCORE.INTER.ROT>
5

>  <SCORE.INTER.VDW>
-25.6323

>  <SCORE.INTER.norm>
-0.788307

>  <SCORE.INTRA>
-0.814967

>  <SCORE.INTRA.DIHEDRAL>
-7.57548

>  <SCORE.INTRA.DIHEDRAL.0>
18.1022

>  <SCORE.INTRA.POLAR>
0

>  <SCORE.INTRA.POLAR.0>
0

>  <SCORE.INTRA.REPUL>
0

>  <SCORE.INTRA.REPUL.0>
0

>  <SCORE.INTRA.VDW>
0.700129

>  <SCORE.INTRA.VDW.0>
-2.81782

>  <SCORE.INTRA.norm>
-0.0313449

>  <SCORE.RESTR>
0

>  <SCORE.RESTR.CAVITY>
0

>  <SCORE.RESTR.norm>
0

>  <SCORE.SYSTEM>
-3.49943

>  <SCORE.SYSTEM.CONST>
0

>  <SCORE.SYSTEM.DIHEDRAL>
2.13466

>  <SCORE.SYSTEM.POLAR>
-0.880733

>  <SCORE.SYSTEM.VDW>
-1.57227

>  <SCORE.SYSTEM.norm>
-0.134593

>  <SCORE.heavy>
26

>  <SCORE.norm>
-0.954245

$$$$
S58.pdb
  rDOCK(R)          3D
libRbt.so/2013.1/901 2013/11/27
 28 30  0  0  0  0  0  0  0  0999 V2000
   24.3809   31.0016   26.7793 C   0  0  0  0  0  0
   24.4796   29.7606   27.3312 C   0  0  0  0  0  0
   23.0822   31.0260   26.0457 C   0  0  0  0  0  0
   22.5168   32.1130   25.1813 C   0  0  0  0  0  0
   22.8702   27.8964   27.5949 C   0  0  0  0  0  0
   21.8746   27.1935   26.9048 C   0  0  0  0  0  0
   21.3996   25.9977   27.4224 C   0  0  0  0  0  0
   21.9288   25.5031   28.6367 C   0  0  0  0  0  0
   22.9283   26.2103   29.3258 C   0  0  0  0  0  0
   23.3991   27.4164   28.8011 C   0  0  0  0  0  0
   25.6572   29.2712   28.1114 C   0  0  0  0  0  0
   26.2494   28.0269   27.7765 C   0  0  0  0  0  0
   27.4453   27.6223   28.3981 C   0  0  0  0  0  0
   28.0511   28.4485   29.3409 C   0  0  0  0  0  0
   27.4562   29.6635   29.6982 C   0  0  0  0  0  0
   26.2534   30.0805   29.0807 C   0  0  0  0  0  0
   23.3498   29.0415   27.0134 N   0  0  0  0  0  0
   22.4980   29.8720   26.2207 N   0  0  0  0  0  0
   21.4382   24.0199   31.0671 N   0  0  0  0  0  0
   22.1048   22.8550   28.7866 O   0  0  0  0  0  0
   19.9510   23.7672   28.9171 O   0  0  0  0  0  0
   29.7226   28.0093   29.9896 Br  0  0  0  0  0  0
   23.3340   32.3117   24.1169 F   0  0  0  0  0  0
   22.3581   33.2342   25.9019 F   0  0  0  0  0  0
   21.3223   31.7062   24.7372 F   0  0  0  0  0  0
   21.3208   23.9247   29.3184 S   0  0  0  0  0  0
   21.2362   23.2327   31.6101 H   0  0  0  0  0  0
   21.7081   24.8590   31.4987 H   0  0  0  0  0  0
  1  3  1  0  0  0
  2  1  2  0  0  0
  2 17  1  0  0  0
  3 18  2  0  0  0
  3  4  1  0  0  0
  4 23  1  0  0  0
  4 25  1  0  0  0
  5 17  1  0  0  0
  5  6  2  0  0  0
  7  6  1  0  0  0
  8  7  2  0  0  0
  9 10  2  0  0  0
  9  8  1  0  0  0
 10  5  1  0  0  0
 11  2  1  0  0  0
 12 11  1  0  0  0
 13 12  2  0  0  0
 14 15  2  0  0  0
 14 13  1  0  0  0
 15 16  1  0  0  0
 16 11  2  0  0  0
 17 18  1  0  0  0
 19 28  1  0  0  0
 20 26  2  0  0  0
 22 14  1  0  0  0
 24  4  1  0  0  0
 26  8  1  0  0  0
 26 19  1  0  0  0
 26 21  2  0  0  0
 27 19  1  0  0  0
M  END
>  <CHROM.0>
-122.75113018,27.91101560,-66.07481419

>  <CHROM.1>
62.29944989,-165.92995647,-129.37567859,-149.34099993,-174.23775188,24.42036653
28.13668356,28.10669043,0.15661375,-0.31548676,-0.50878986

>  <FORMUL>
      S58    C16 H11 Br1 F3 N3 O2 S1

>  <HET>
 S58  A 701      28

>  <HETNAM>
     S58 1-PHENYLSULFONAMIDE-3-TRIFLUOROMETHYL-5-PARABROMOPHENYL
   2 S58 PYRAZOLE

>  <Name>
S58.pdb

>  <RI>
0

>  <Rbt.Current_Directory>
/home/malgorzata/Desktop/rDOCK_IFD/Wyniki/3a_COX2

>  <Rbt.Executable>
rbdock ($Id: //depot/dev/client3/rdock/2013.1/src/exe/rbdock.cxx#4 $)

>  <Rbt.Library>
libRbt.so (2013.1, Build901 2013/11/27)

>  <Rbt.Parameter_File>
/home/malgorzata/Desktop/rDock_2013.1_src/data/scripts/soft_docking.prm

>  <Rbt.Receptor>
cavity.prm

>  <SCORE>
-22.9355

>  <SCORE.INTER>
-18.9628

>  <SCORE.INTER.CONST>
1

>  <SCORE.INTER.POLAR>
-0.819353

>  <SCORE.INTER.REPUL>
0

>  <SCORE.INTER.ROT>
5

>  <SCORE.INTER.VDW>
-26.5769

>  <SCORE.INTER.norm>
-0.729337

>  <SCORE.INTRA>
-0.809646

>  <SCORE.INTRA.DIHEDRAL>
-6.14534

>  <SCORE.INTRA.DIHEDRAL.0>
18.1022

>  <SCORE.INTRA.POLAR>
0

>  <SCORE.INTRA.POLAR.0>
0

>  <SCORE.INTRA.REPUL>
0

>  <SCORE.INTRA.REPUL.0>
0

>  <SCORE.INTRA.VDW>
0.419421

>  <SCORE.INTRA.VDW.0>
-2.81782

>  <SCORE.INTRA.norm>
-0.0311402

>  <SCORE.RESTR>
0.490506

>  <SCORE.RESTR.CAVITY>
0.490506

>  <SCORE.RESTR.norm>
0.0188656

>  <SCORE.SYSTEM>
-3.65362

>  <SCORE.SYSTEM.CONST>
0

>  <SCORE.SYSTEM.DIHEDRAL>
1.00965

>  <SCORE.SYSTEM.POLAR>
-0.810978

>  <SCORE.SYSTEM.VDW>
-1.40112

>  <SCORE.SYSTEM.norm>
-0.140524

>  <SCORE.heavy>
26

>  <SCORE.norm>
-0.882135

$$$$
S58.pdb
  rDOCK(R)          3D
libRbt.so/2013.1/901 2013/11/27
 28 30  0  0  0  0  0  0  0  0999 V2000
   22.8432   28.4739   27.7624 C   0  0  0  0  0  0
   24.0845   29.0155   27.9042 C   0  0  0  0  0  0
   23.0091   27.0037   27.9527 C   0  0  0  0  0  0
   21.9819   25.9206   27.8099 C   0  0  0  0  0  0
   26.2437   28.1036   28.7052 C   0  0  0  0  0  0
   27.2861   27.5128   27.9798 C   0  0  0  0  0  0
   28.5900   27.6339   28.4366 C   0  0  0  0  0  0
   28.8496   28.3545   29.6250 C   0  0  0  0  0  0
   27.8017   28.9470   30.3495 C   0  0  0  0  0  0
   26.4901   28.8173   29.8863 C   0  0  0  0  0  0
   24.4007   30.4667   27.7340 C   0  0  0  0  0  0
   23.4219   31.4387   28.0631 C   0  0  0  0  0  0
   23.7518   32.8067   28.0527 C   0  0  0  0  0  0
   25.0442   33.2062   27.7233 C   0  0  0  0  0  0
   26.0064   32.2545   27.3681 C   0  0  0  0  0  0
   25.6862   30.8763   27.3740 C   0  0  0  0  0  0
   24.9801   28.0079   28.1821 N   0  0  0  0  0  0
   24.2660   26.7700   28.2156 N   0  0  0  0  0  0
   31.5765   27.4711   29.2629 N   0  0  0  0  0  0
   30.6051   28.1973   31.6148 O   0  0  0  0  0  0
   30.9561   29.9004   30.0451 O   0  0  0  0  0  0
   25.5225   34.9783   27.9199 Br  0  0  0  0  0  0
   22.6032   24.7437   27.5474 F   0  0  0  0  0  0
   21.1058   26.2455   26.8464 F   0  0  0  0  0  0
   21.3316   25.8142   28.9740 F   0  0  0  0  0  0
   30.5622   28.5314   30.2263 S   0  0  0  0  0  0
   32.5373   27.6406   29.2048 H   0  0  0  0  0  0
   31.1817   26.7094   28.7864 H   0  0  0  0  0  0
  1  3  1  0  0  0
  2  1  2  0  0  0
  2 17  1  0  0  0
  3 18  2  0  0  0
  3  4  1  0  0  0
  4 23  1  0  0  0
  4 25  1  0  0  0
  5 17  1  0  0  0
  5  6  2  0  0  0
  7  6  1  0  0  0
  8  7  2  0  0  0
  9 10  2  0  0  0
  9  8  1  0  0  0
 10  5  1  0  0  0
 11  2  1  0  0  0
 12 11  1  0  0  0
 13 12  2  0  0  0
 14 15  2  0  0  0
 14 13  1  0  0  0
 15 16  1  0  0  0
 16 11  2  0  0  0
 17 18  1  0  0  0
 19 28  1  0  0  0
 20 26  2  0  0  0
 22 14  1  0  0  0
 24  4  1  0  0  0
 26  8  1  0  0  0
 26 19  1  0  0  0
 26 21  2  0  0  0
 27 19  1  0  0  0
M  END
>  <CHROM.0>
178.63804530,-167.09890279,-178.84767100

>  <CHROM.1>
156.17270583,-125.38551874,31.37599315,-9.57328277,158.52507942,25.86076787
29.65025864,28.51286226,2.24195884,0.29277112,3.04041385

>  <FORMUL>
      S58    C16 H11 Br1 F3 N3 O2 S1

>  <HET>
 S58  A 701      28

>  <HETNAM>
     S58 1-PHENYLSULFONAMIDE-3-TRIFLUOROMETHYL-5-PARABROMOPHENYL
   2 S58 PYRAZOLE

>  <Name>
S58.pdb

>  <RI>
0

>  <Rbt.Current_Directory>
/home/malgorzata/Desktop/rDOCK_IFD/Wyniki/3a_COX2

>  <Rbt.Executable>
rbdock ($Id: //depot/dev/client3/rdock/2013.1/src/exe/rbdock.cxx#4 $)

>  <Rbt.Library>
libRbt.so (2013.1, Build901 2013/11/27)

>  <Rbt.Parameter_File>
/home/malgorzata/Desktop/rDock_2013.1_src/data/scripts/soft_docking.prm

>  <Rbt.Receptor>
cavity.prm

>  <SCORE>
-22.7033

>  <SCORE.INTER>
-19.6597

>  <SCORE.INTER.CONST>
1

>  <SCORE.INTER.POLAR>
-1.93877

>  <SCORE.INTER.REPUL>
0.0251583

>  <SCORE.INTER.ROT>
5

>  <SCORE.INTER.VDW>
-23.5936

>  <SCORE.INTER.norm>
-0.756141

>  <SCORE.INTRA>
-0.841734

>  <SCORE.INTRA.DIHEDRAL>
-2.4312

>  <SCORE.INTRA.DIHEDRAL.0>
18.1022

>  <SCORE.INTRA.POLAR>
0

>  <SCORE.INTRA.POLAR.0>
0

>  <SCORE.INTRA.REPUL>
0

>  <SCORE.INTRA.REPUL.0>
0

>  <SCORE.INTRA.VDW>
-0.355494

>  <SCORE.INTRA.VDW.0>
-2.81782

>  <SCORE.INTRA.norm>
-0.0323744

>  <SCORE.RESTR>
0

>  <SCORE.RESTR.CAVITY>
0

>  <SCORE.RESTR.norm>
0

>  <SCORE.SYSTEM>
-2.20195

>  <SCORE.SYSTEM.CONST>
0

>  <SCORE.SYSTEM.DIHEDRAL>
0.787032

>  <SCORE.SYSTEM.POLAR>
-0.263374

>  <SCORE.SYSTEM.REPUL>
0.00865021

>  <SCORE.SYSTEM.VDW>
-1.74325

>  <SCORE.SYSTEM.norm>
-0.0846904

>  <SCORE.heavy>
26

>  <SCORE.norm>
-0.873206

$$$$
