S58.pdb
  rDOCK(R)          3D
libRbt.so/2013.1/901 2013/11/27
 28 30  0  0  0  0  0  0  0  0999 V2000
   23.9326   31.8576   29.9376 C   0  0  0  0  0  0
   24.1823   30.6312   29.4009 C   0  0  0  0  0  0
   22.4773   32.1113   29.7304 C   0  0  0  0  0  0
   21.6899   33.3484   30.0437 C   0  0  0  0  0  0
   22.7113   28.8167   28.5770 C   0  0  0  0  0  0
   22.3290   27.9602   29.6172 C   0  0  0  0  0  0
   21.9630   26.6544   29.3268 C   0  0  0  0  0  0
   21.9771   26.2070   27.9857 C   0  0  0  0  0  0
   22.3599   27.0692   26.9445 C   0  0  0  0  0  0
   22.7318   28.3820   27.2445 C   0  0  0  0  0  0
   25.5335   29.9951   29.3322 C   0  0  0  0  0  0
   26.5439   30.4005   30.2409 C   0  0  0  0  0  0
   27.7694   29.7104   30.2903 C   0  0  0  0  0  0
   27.9879   28.6235   29.4480 C   0  0  0  0  0  0
   27.0071   28.2373   28.5280 C   0  0  0  0  0  0
   25.7715   28.9240   28.4685 C   0  0  0  0  0  0
   23.0062   30.1143   28.9067 N   0  0  0  0  0  0
   21.9646   31.0642   29.1436 N   0  0  0  0  0  0
   22.6736   23.8420   26.4792 N   0  0  0  0  0  0
   20.1718   24.5078   27.0267 O   0  0  0  0  0  0
   21.4776   23.7442   28.8155 O   0  0  0  0  0  0
   29.5066   27.5975   29.6686 Br  0  0  0  0  0  0
   20.8728   33.6374   29.0002 F   0  0  0  0  0  0
   22.5238   34.3639   30.3177 F   0  0  0  0  0  0
   20.9392   33.0963   31.1218 F   0  0  0  0  0  0
   21.4840   24.4959   27.5920 S   0  0  0  0  0  0
   23.6244   23.8957   26.6994 H   0  0  0  0  0  0
   22.3860   23.4216   25.6403 H   0  0  0  0  0  0
  1  3  1  0  0  0
  2  1  2  0  0  0
  2 17  1  0  0  0
  3 18  2  0  0  0
  3  4  1  0  0  0
  4 23  1  0  0  0
  4 25  1  0  0  0
  5 17  1  0  0  0
  5  6  2  0  0  0
  7  6  1  0  0  0
  8  7  2  0  0  0
  9 10  2  0  0  0
  9  8  1  0  0  0
 10  5  1  0  0  0
 11  2  1  0  0  0
 12 11  1  0  0  0
 13 12  2  0  0  0
 14 15  2  0  0  0
 14 13  1  0  0  0
 15 16  1  0  0  0
 16 11  2  0  0  0
 17 18  1  0  0  0
 19 28  1  0  0  0
 20 26  2  0  0  0
 22 14  1  0  0  0
 24  4  1  0  0  0
 26  8  1  0  0  0
 26 19  1  0  0  0
 26 21  2  0  0  0
 27 19  1  0  0  0
M  END
>  <CHROM.0>
75.37914283,80.14342906,-75.77976038

>  <CHROM.1>
135.28458990,82.46174005,23.18865617,-134.09995734,51.63985994,24.19988156
28.71826484,29.02643752,-2.56889276,0.14722877,-2.86611945

>  <FORMUL>
      S58    C16 H11 Br1 F3 N3 O2 S1

>  <HET>
 S58  A 701      28

>  <HETNAM>
     S58 1-PHENYLSULFONAMIDE-3-TRIFLUOROMETHYL-5-PARABROMOPHENYL
   2 S58 PYRAZOLE

>  <Name>
S58.pdb

>  <RI>
0

>  <Rbt.Current_Directory>
/home/malgorzata/Desktop/rDOCK_IFD/test3

>  <Rbt.Executable>
rbdock ($Id: //depot/dev/client3/rdock/2013.1/src/exe/rbdock.cxx#4 $)

>  <Rbt.Library>
libRbt.so (2013.1, Build901 2013/11/27)

>  <Rbt.Parameter_File>
/home/malgorzata/Desktop/rDock_2013.1_src/data/scripts/soft_docking.prm

>  <Rbt.Receptor>
cavity.prm

>  <SCORE>
-16.6485

>  <SCORE.INTER>
-11.6712

>  <SCORE.INTER.CONST>
1

>  <SCORE.INTER.POLAR>
-0.800597

>  <SCORE.INTER.REPUL>
0

>  <SCORE.INTER.ROT>
5

>  <SCORE.INTER.VDW>
-19.3491

>  <SCORE.INTER.norm>
-0.448891

>  <SCORE.INTRA>
-0.422114

>  <SCORE.INTRA.DIHEDRAL>
-1.19061

>  <SCORE.INTRA.DIHEDRAL.0>
18.1022

>  <SCORE.INTRA.POLAR>
0

>  <SCORE.INTRA.POLAR.0>
0

>  <SCORE.INTRA.REPUL>
0

>  <SCORE.INTRA.REPUL.0>
0

>  <SCORE.INTRA.VDW>
-0.183991

>  <SCORE.INTRA.VDW.0>
-2.81782

>  <SCORE.INTRA.norm>
-0.0162351

>  <SCORE.RESTR>
0

>  <SCORE.RESTR.CAVITY>
0

>  <SCORE.RESTR.norm>
0

>  <SCORE.SYSTEM>
-4.55524

>  <SCORE.SYSTEM.CONST>
0

>  <SCORE.SYSTEM.DIHEDRAL>
1.96281

>  <SCORE.SYSTEM.POLAR>
-1.06553

>  <SCORE.SYSTEM.VDW>
-1.91383

>  <SCORE.SYSTEM.norm>
-0.175202

>  <SCORE.heavy>
26

>  <SCORE.norm>
-0.640328

$$$$
S58.pdb
  rDOCK(R)          3D
libRbt.so/2013.1/901 2013/11/27
 28 30  0  0  0  0  0  0  0  0999 V2000
   27.9555   29.5614   32.1327 C   0  0  0  0  0  0
   28.6286   29.8702   30.9899 C   0  0  0  0  0  0
   26.7379   30.4232   32.1413 C   0  0  0  0  0  0
   25.6964   30.5595   33.2114 C   0  0  0  0  0  0
   28.0330   31.1968   28.9848 C   0  0  0  0  0  0
   28.6338   32.4332   28.7167 C   0  0  0  0  0  0
   28.8277   32.8271   27.4011 C   0  0  0  0  0  0
   28.4199   31.9745   26.3495 C   0  0  0  0  0  0
   27.8185   30.7343   26.6221 C   0  0  0  0  0  0
   27.6221   30.3457   27.9495 C   0  0  0  0  0  0
   29.9471   29.2845   30.5982 C   0  0  0  0  0  0
   30.0149   28.3845   29.5044 C   0  0  0  0  0  0
   31.2632   27.9424   29.0282 C   0  0  0  0  0  0
   32.4348   28.3941   29.6298 C   0  0  0  0  0  0
   32.3742   29.2581   30.7287 C   0  0  0  0  0  0
   31.1249   29.7087   31.2168 C   0  0  0  0  0  0
   27.9176   30.8253   30.2994 N   0  0  0  0  0  0
   26.7384   31.1335   31.0463 N   0  0  0  0  0  0
   28.8211   34.2267   24.5848 N   0  0  0  0  0  0
   27.5883   32.0120   23.8250 O   0  0  0  0  0  0
   29.9026   31.8714   24.1598 O   0  0  0  0  0  0
   34.0634   27.9794   28.8661 Br  0  0  0  0  0  0
   24.4716   30.6582   32.6367 F   0  0  0  0  0  0
   25.9702   31.6231   33.9830 F   0  0  0  0  0  0
   25.7316   29.4536   33.9632 F   0  0  0  0  0  0
   28.6833   32.4772   24.6163 S   0  0  0  0  0  0
   28.0132   34.7768   24.5916 H   0  0  0  0  0  0
   29.7054   34.6518   24.5631 H   0  0  0  0  0  0
  1  3  1  0  0  0
  2  1  2  0  0  0
  2 17  1  0  0  0
  3 18  2  0  0  0
  3  4  1  0  0  0
  4 23  1  0  0  0
  4 25  1  0  0  0
  5 17  1  0  0  0
  5  6  2  0  0  0
  7  6  1  0  0  0
  8  7  2  0  0  0
  9 10  2  0  0  0
  9  8  1  0  0  0
 10  5  1  0  0  0
 11  2  1  0  0  0
 12 11  1  0  0  0
 13 12  2  0  0  0
 14 15  2  0  0  0
 14 13  1  0  0  0
 15 16  1  0  0  0
 16 11  2  0  0  0
 17 18  1  0  0  0
 19 28  1  0  0  0
 20 26  2  0  0  0
 22 14  1  0  0  0
 24  4  1  0  0  0
 26  8  1  0  0  0
 26 19  1  0  0  0
 26 21  2  0  0  0
 27 19  1  0  0  0
M  END
>  <CHROM.0>
114.25798222,96.84567854,-82.48983474

>  <CHROM.1>
-140.59428427,-106.76391671,110.20575541,-22.74526018,-81.57987102,29.34522395
30.32542132,29.13350302,-2.49377838,0.45713831,-1.17766357

>  <FORMUL>
      S58    C16 H11 Br1 F3 N3 O2 S1

>  <HET>
 S58  A 701      28

>  <HETNAM>
     S58 1-PHENYLSULFONAMIDE-3-TRIFLUOROMETHYL-5-PARABROMOPHENYL
   2 S58 PYRAZOLE

>  <Name>
S58.pdb

>  <RI>
0

>  <Rbt.Current_Directory>
/home/malgorzata/Desktop/rDOCK_IFD/test3

>  <Rbt.Executable>
rbdock ($Id: //depot/dev/client3/rdock/2013.1/src/exe/rbdock.cxx#4 $)

>  <Rbt.Library>
libRbt.so (2013.1, Build901 2013/11/27)

>  <Rbt.Parameter_File>
/home/malgorzata/Desktop/rDock_2013.1_src/data/scripts/soft_docking.prm

>  <Rbt.Receptor>
cavity.prm

>  <SCORE>
-22.8746

>  <SCORE.INTER>
-20.0938

>  <SCORE.INTER.CONST>
1

>  <SCORE.INTER.POLAR>
-1.11765

>  <SCORE.INTER.REPUL>
0

>  <SCORE.INTER.ROT>
5

>  <SCORE.INTER.VDW>
-26.6938

>  <SCORE.INTER.norm>
-0.772838

>  <SCORE.INTRA>
1.00454

>  <SCORE.INTRA.DIHEDRAL>
9.01929

>  <SCORE.INTRA.DIHEDRAL.0>
18.1022

>  <SCORE.INTRA.POLAR>
0

>  <SCORE.INTRA.POLAR.0>
0

>  <SCORE.INTRA.REPUL>
0

>  <SCORE.INTRA.REPUL.0>
0

>  <SCORE.INTRA.VDW>
-0.799319

>  <SCORE.INTRA.VDW.0>
-2.81782

>  <SCORE.INTRA.norm>
0.0386362

>  <SCORE.RESTR>
0.187353

>  <SCORE.RESTR.CAVITY>
0.187353

>  <SCORE.RESTR.norm>
0.00720588

>  <SCORE.SYSTEM>
-3.97268

>  <SCORE.SYSTEM.CONST>
0

>  <SCORE.SYSTEM.DIHEDRAL>
3.01301

>  <SCORE.SYSTEM.POLAR>
-1.03921

>  <SCORE.SYSTEM.VDW>
-1.94588

>  <SCORE.SYSTEM.norm>
-0.152795

>  <SCORE.heavy>
26

>  <SCORE.norm>
-0.879791

$$$$
S58.pdb
  rDOCK(R)          3D
libRbt.so/2013.1/901 2013/11/27
 28 30  0  0  0  0  0  0  0  0999 V2000
   24.2482   32.9628   28.2973 C   0  0  0  0  0  0
   24.8247   31.7597   28.5703 C   0  0  0  0  0  0
   25.2048   33.9995   28.7826 C   0  0  0  0  0  0
   25.0316   35.4886   28.8176 C   0  0  0  0  0  0
   27.0963   31.1038   29.3083 C   0  0  0  0  0  0
   28.3700   31.5579   28.9434 C   0  0  0  0  0  0
   29.4690   30.7332   29.1325 C   0  0  0  0  0  0
   29.2893   29.4480   29.6939 C   0  0  0  0  0  0
   28.0103   28.9962   30.0600 C   0  0  0  0  0  0
   26.9071   29.8302   29.8625 C   0  0  0  0  0  0
   24.1859   30.4342   28.3058 C   0  0  0  0  0  0
   24.5083   29.7271   27.1196 C   0  0  0  0  0  0
   24.0350   28.4160   26.9266 C   0  0  0  0  0  0
   23.2521   27.8099   27.9055 C   0  0  0  0  0  0
   22.9049   28.5128   29.0645 C   0  0  0  0  0  0
   23.3741   29.8318   29.2692 C   0  0  0  0  0  0
   26.0502   31.9770   29.1581 N   0  0  0  0  0  0
   26.2542   33.3882   29.2609 N   0  0  0  0  0  0
   30.7995   27.2326   28.6174 N   0  0  0  0  0  0
   30.5841   27.6936   31.2142 O   0  0  0  0  0  0
   31.9067   29.1842   29.9826 O   0  0  0  0  0  0
   22.8171   26.0236   27.7401 Br  0  0  0  0  0  0
   23.8195   35.7877   29.3481 F   0  0  0  0  0  0
   25.1716   35.9942   27.5821 F   0  0  0  0  0  0
   25.9847   35.9953   29.6077 F   0  0  0  0  0  0
   30.7298   28.3617   29.9596 S   0  0  0  0  0  0
   30.2674   27.4002   27.8149 H   0  0  0  0  0  0
   31.3722   26.4374   28.6707 H   0  0  0  0  0  0
  1  3  1  0  0  0
  2  1  2  0  0  0
  2 17  1  0  0  0
  3 18  2  0  0  0
  3  4  1  0  0  0
  4 23  1  0  0  0
  4 25  1  0  0  0
  5 17  1  0  0  0
  5  6  2  0  0  0
  7  6  1  0  0  0
  8  7  2  0  0  0
  9 10  2  0  0  0
  9  8  1  0  0  0
 10  5  1  0  0  0
 11  2  1  0  0  0
 12 11  1  0  0  0
 13 12  2  0  0  0
 14 15  2  0  0  0
 14 13  1  0  0  0
 15 16  1  0  0  0
 16 11  2  0  0  0
 17 18  1  0  0  0
 19 28  1  0  0  0
 20 26  2  0  0  0
 22 14  1  0  0  0
 24  4  1  0  0  0
 26  8  1  0  0  0
 26 19  1  0  0  0
 26 21  2  0  0  0
 27 19  1  0  0  0
M  END
>  <CHROM.0>
157.15445238,-58.96896867,-61.08984612

>  <CHROM.1>
47.41692424,131.85764290,97.18112818,-98.68758148,14.22394090,26.05200011
30.16969449,28.82471656,1.48692507,-0.25051946,0.05552454

>  <FORMUL>
      S58    C16 H11 Br1 F3 N3 O2 S1

>  <HET>
 S58  A 701      28

>  <HETNAM>
     S58 1-PHENYLSULFONAMIDE-3-TRIFLUOROMETHYL-5-PARABROMOPHENYL
   2 S58 PYRAZOLE

>  <Name>
S58.pdb

>  <RI>
0

>  <Rbt.Current_Directory>
/home/malgorzata/Desktop/rDOCK_IFD/test3

>  <Rbt.Executable>
rbdock ($Id: //depot/dev/client3/rdock/2013.1/src/exe/rbdock.cxx#4 $)

>  <Rbt.Library>
libRbt.so (2013.1, Build901 2013/11/27)

>  <Rbt.Parameter_File>
/home/malgorzata/Desktop/rDock_2013.1_src/data/scripts/soft_docking.prm

>  <Rbt.Receptor>
cavity.prm

>  <SCORE>
-20.7332

>  <SCORE.INTER>
-17.1824

>  <SCORE.INTER.CONST>
1

>  <SCORE.INTER.POLAR>
-2.40457

>  <SCORE.INTER.REPUL>
0

>  <SCORE.INTER.ROT>
5

>  <SCORE.INTER.VDW>
-19.4068

>  <SCORE.INTER.norm>
-0.66086

>  <SCORE.INTRA>
0.281457

>  <SCORE.INTRA.DIHEDRAL>
3.11464

>  <SCORE.INTRA.DIHEDRAL.0>
18.1022

>  <SCORE.INTRA.POLAR>
0

>  <SCORE.INTRA.POLAR.0>
0

>  <SCORE.INTRA.REPUL>
0

>  <SCORE.INTRA.REPUL.0>
0

>  <SCORE.INTRA.VDW>
-0.341471

>  <SCORE.INTRA.VDW.0>
-2.81782

>  <SCORE.INTRA.norm>
0.0108253

>  <SCORE.RESTR>
0

>  <SCORE.RESTR.CAVITY>
0

>  <SCORE.RESTR.norm>
0

>  <SCORE.SYSTEM>
-3.83233

>  <SCORE.SYSTEM.CONST>
0

>  <SCORE.SYSTEM.DIHEDRAL>
0.771955

>  <SCORE.SYSTEM.POLAR>
-0.800657

>  <SCORE.SYSTEM.VDW>
-1.49607

>  <SCORE.SYSTEM.norm>
-0.147397

>  <SCORE.heavy>
26

>  <SCORE.norm>
-0.797432

$$$$
S58.pdb
  rDOCK(R)          3D
libRbt.so/2013.1/901 2013/11/27
 28 30  0  0  0  0  0  0  0  0999 V2000
   24.0351   29.2628   25.7935 C   0  0  0  0  0  0
   24.3928   28.4322   26.8116 C   0  0  0  0  0  0
   22.5693   29.0681   25.5964 C   0  0  0  0  0  0
   21.6799   29.6634   24.5461 C   0  0  0  0  0  0
   23.0885   27.0959   28.4389 C   0  0  0  0  0  0
   23.3966   27.7779   29.6229 C   0  0  0  0  0  0
   23.1709   27.1611   30.8445 C   0  0  0  0  0  0
   22.6300   25.8552   30.8782 C   0  0  0  0  0  0
   22.3210   25.1745   29.6886 C   0  0  0  0  0  0
   22.5551   25.7998   28.4614 C   0  0  0  0  0  0
   25.7912   28.2556   27.3099 C   0  0  0  0  0  0
   26.7403   29.2902   27.1104 C   0  0  0  0  0  0
   28.0142   29.2055   27.7022 C   0  0  0  0  0  0
   28.3415   28.1050   28.4899 C   0  0  0  0  0  0
   27.4207   27.0664   28.6660 C   0  0  0  0  0  0
   26.1371   27.1399   28.0752 C   0  0  0  0  0  0
   23.2726   27.7692   27.2590 N   0  0  0  0  0  0
   22.1541   28.2041   26.4822 N   0  0  0  0  0  0
   22.9295   26.0959   33.7417 N   0  0  0  0  0  0
   22.9607   23.7659   32.4879 O   0  0  0  0  0  0
   20.8977   24.8681   32.6183 O   0  0  0  0  0  0
   29.9291   28.1051   29.4318 Br  0  0  0  0  0  0
   20.5053   30.0384   25.1116 F   0  0  0  0  0  0
   21.4932   28.7815   23.5516 F   0  0  0  0  0  0
   22.2893   30.7496   24.0582 F   0  0  0  0  0  0
   22.3165   25.0412   32.4797 S   0  0  0  0  0  0
   22.8841   25.8115   34.6757 H   0  0  0  0  0  0
   23.3189   26.9668   33.5111 H   0  0  0  0  0  0
  1  3  1  0  0  0
  2  1  2  0  0  0
  2 17  1  0  0  0
  3 18  2  0  0  0
  3  4  1  0  0  0
  4 23  1  0  0  0
  4 25  1  0  0  0
  5 17  1  0  0  0
  5  6  2  0  0  0
  7  6  1  0  0  0
  8  7  2  0  0  0
  9 10  2  0  0  0
  9  8  1  0  0  0
 10  5  1  0  0  0
 11  2  1  0  0  0
 12 11  1  0  0  0
 13 12  2  0  0  0
 14 15  2  0  0  0
 14 13  1  0  0  0
 15 16  1  0  0  0
 16 11  2  0  0  0
 17 18  1  0  0  0
 19 28  1  0  0  0
 20 26  2  0  0  0
 22 14  1  0  0  0
 24  4  1  0  0  0
 26  8  1  0  0  0
 26 19  1  0  0  0
 26 21  2  0  0  0
 27 19  1  0  0  0
M  END
>  <CHROM.0>
-158.51630380,-8.51083791,159.88027850

>  <CHROM.1>
-138.57007926,52.09316740,24.17060757,-4.97320672,-177.53984934,24.58603032
27.60391863,28.57131406,-2.53114533,0.14764324,2.10349325

>  <FORMUL>
      S58    C16 H11 Br1 F3 N3 O2 S1

>  <HET>
 S58  A 701      28

>  <HETNAM>
     S58 1-PHENYLSULFONAMIDE-3-TRIFLUOROMETHYL-5-PARABROMOPHENYL
   2 S58 PYRAZOLE

>  <Name>
S58.pdb

>  <RI>
0

>  <Rbt.Current_Directory>
/home/malgorzata/Desktop/rDOCK_IFD/test3

>  <Rbt.Executable>
rbdock ($Id: //depot/dev/client3/rdock/2013.1/src/exe/rbdock.cxx#4 $)

>  <Rbt.Library>
libRbt.so (2013.1, Build901 2013/11/27)

>  <Rbt.Parameter_File>
/home/malgorzata/Desktop/rDock_2013.1_src/data/scripts/soft_docking.prm

>  <Rbt.Receptor>
cavity.prm

>  <SCORE>
-17.2181

>  <SCORE.INTER>
-15.658

>  <SCORE.INTER.CONST>
1

>  <SCORE.INTER.POLAR>
-0.811946

>  <SCORE.INTER.REPUL>
0

>  <SCORE.INTER.ROT>
5

>  <SCORE.INTER.VDW>
-23.2974

>  <SCORE.INTER.norm>
-0.602233

>  <SCORE.INTRA>
-0.824191

>  <SCORE.INTRA.DIHEDRAL>
-3.93844

>  <SCORE.INTRA.DIHEDRAL.0>
18.1022

>  <SCORE.INTRA.POLAR>
0

>  <SCORE.INTRA.POLAR.0>
0

>  <SCORE.INTRA.REPUL>
0

>  <SCORE.INTRA.REPUL.0>
0

>  <SCORE.INTRA.VDW>
-0.0365027

>  <SCORE.INTRA.VDW.0>
-2.81782

>  <SCORE.INTRA.norm>
-0.0316997

>  <SCORE.RESTR>
0.0183178

>  <SCORE.RESTR.CAVITY>
0.0183178

>  <SCORE.RESTR.norm>
0.000704532

>  <SCORE.SYSTEM>
-0.754175

>  <SCORE.SYSTEM.CONST>
0

>  <SCORE.SYSTEM.DIHEDRAL>
2.63976

>  <SCORE.SYSTEM.POLAR>
-0.189831

>  <SCORE.SYSTEM.VDW>
-1.42863

>  <SCORE.SYSTEM.norm>
-0.0290067

>  <SCORE.heavy>
26

>  <SCORE.norm>
-0.662235

$$$$
S58.pdb
  rDOCK(R)          3D
libRbt.so/2013.1/901 2013/11/27
 28 30  0  0  0  0  0  0  0  0999 V2000
   25.0789   31.5001   29.7838 C   0  0  0  0  0  0
   25.1326   30.2480   29.2511 C   0  0  0  0  0  0
   23.6307   31.8382   29.9006 C   0  0  0  0  0  0
   23.0041   33.1288   30.3367 C   0  0  0  0  0  0
   23.4158   28.5086   28.8487 C   0  0  0  0  0  0
   23.1612   27.7267   29.9825 C   0  0  0  0  0  0
   22.6648   26.4409   29.8278 C   0  0  0  0  0  0
   22.4192   25.9387   28.5291 C   0  0  0  0  0  0
   22.6746   26.7263   27.3939 C   0  0  0  0  0  0
   23.1788   28.0189   27.5568 C   0  0  0  0  0  0
   26.3959   29.5282   28.9035 C   0  0  0  0  0  0
   27.4573   29.4853   29.8430 C   0  0  0  0  0  0
   28.5904   28.6887   29.5946 C   0  0  0  0  0  0
   28.6670   27.9367   28.4253 C   0  0  0  0  0  0
   27.6372   27.9980   27.4800 C   0  0  0  0  0  0
   26.4935   28.7961   27.7183 C   0  0  0  0  0  0
   23.8485   29.7930   29.0545 N   0  0  0  0  0  0
   22.9415   30.8109   29.4843 N   0  0  0  0  0  0
   21.9638   23.8085   26.6311 N   0  0  0  0  0  0
   20.3783   24.2446   28.7043 O   0  0  0  0  0  0
   22.5027   23.3710   29.1641 O   0  0  0  0  0  0
   30.0522   26.7357   28.2097 Br  0  0  0  0  0  0
   23.7896   33.7158   31.2740 F   0  0  0  0  0  0
   21.7645   32.9020   30.7987 F   0  0  0  0  0  0
   22.9325   33.9326   29.2698 F   0  0  0  0  0  0
   21.7532   24.2545   28.3157 S   0  0  0  0  0  0
   22.8641   23.7361   26.2577 H   0  0  0  0  0  0
   21.1812   23.6299   26.0663 H   0  0  0  0  0  0
  1  3  1  0  0  0
  2  1  2  0  0  0
  2 17  1  0  0  0
  3 18  2  0  0  0
  3  4  1  0  0  0
  4 23  1  0  0  0
  4 25  1  0  0  0
  5 17  1  0  0  0
  5  6  2  0  0  0
  7  6  1  0  0  0
  8  7  2  0  0  0
  9 10  2  0  0  0
  9  8  1  0  0  0
 10  5  1  0  0  0
 11  2  1  0  0  0
 12 11  1  0  0  0
 13 12  2  0  0  0
 14 15  2  0  0  0
 14 13  1  0  0  0
 15 16  1  0  0  0
 16 11  2  0  0  0
 17 18  1  0  0  0
 19 28  1  0  0  0
 20 26  2  0  0  0
 22 14  1  0  0  0
 24  4  1  0  0  0
 26  8  1  0  0  0
 26 19  1  0  0  0
 26 21  2  0  0  0
 27 19  1  0  0  0
M  END
>  <CHROM.0>
-35.06318750,-63.04376620,-62.40150234

>  <CHROM.1>
-33.28100348,85.97889621,47.80162495,-165.53359618,63.15911449,24.92298631
28.30009417,28.89830789,-2.23755882,-0.07512371,-2.89572978

>  <FORMUL>
      S58    C16 H11 Br1 F3 N3 O2 S1

>  <HET>
 S58  A 701      28

>  <HETNAM>
     S58 1-PHENYLSULFONAMIDE-3-TRIFLUOROMETHYL-5-PARABROMOPHENYL
   2 S58 PYRAZOLE

>  <Name>
S58.pdb

>  <RI>
0

>  <Rbt.Current_Directory>
/home/malgorzata/Desktop/rDOCK_IFD/test3

>  <Rbt.Executable>
rbdock ($Id: //depot/dev/client3/rdock/2013.1/src/exe/rbdock.cxx#4 $)

>  <Rbt.Library>
libRbt.so (2013.1, Build901 2013/11/27)

>  <Rbt.Parameter_File>
/home/malgorzata/Desktop/rDock_2013.1_src/data/scripts/soft_docking.prm

>  <Rbt.Receptor>
cavity.prm

>  <SCORE>
-24.0159

>  <SCORE.INTER>
-20.9281

>  <SCORE.INTER.CONST>
1

>  <SCORE.INTER.POLAR>
-1.85524

>  <SCORE.INTER.REPUL>
0

>  <SCORE.INTER.ROT>
5

>  <SCORE.INTER.VDW>
-25.0203

>  <SCORE.INTER.norm>
-0.804926

>  <SCORE.INTRA>
0.100141

>  <SCORE.INTRA.DIHEDRAL>
3.60019

>  <SCORE.INTRA.DIHEDRAL.0>
18.1022

>  <SCORE.INTRA.POLAR>
0

>  <SCORE.INTRA.POLAR.0>
0

>  <SCORE.INTRA.REPUL>
0

>  <SCORE.INTRA.REPUL.0>
0

>  <SCORE.INTRA.VDW>
-0.619897

>  <SCORE.INTRA.VDW.0>
-2.81782

>  <SCORE.INTRA.norm>
0.00385159

>  <SCORE.RESTR>
0.473389

>  <SCORE.RESTR.CAVITY>
0.473389

>  <SCORE.RESTR.norm>
0.0182073

>  <SCORE.SYSTEM>
-3.66138

>  <SCORE.SYSTEM.CONST>
0

>  <SCORE.SYSTEM.DIHEDRAL>
0.861684

>  <SCORE.SYSTEM.POLAR>
-0.80374

>  <SCORE.SYSTEM.VDW>
-1.3595

>  <SCORE.SYSTEM.norm>
-0.140822

>  <SCORE.heavy>
26

>  <SCORE.norm>
-0.92369

$$$$
S58.pdb
  rDOCK(R)          3D
libRbt.so/2013.1/901 2013/11/27
 28 30  0  0  0  0  0  0  0  0999 V2000
   22.4899   28.4024   26.8416 C   0  0  0  0  0  0
   23.6759   29.0378   27.0509 C   0  0  0  0  0  0
   22.7111   26.9773   27.2230 C   0  0  0  0  0  0
   21.7665   25.8191   27.1006 C   0  0  0  0  0  0
   25.7744   28.3676   28.1834 C   0  0  0  0  0  0
   25.7110   28.8132   29.5097 C   0  0  0  0  0  0
   26.8855   29.0107   30.2205 C   0  0  0  0  0  0
   28.1295   28.7562   29.5983 C   0  0  0  0  0  0
   28.1893   28.3082   28.2680 C   0  0  0  0  0  0
   27.0026   28.1157   27.5565 C   0  0  0  0  0  0
   23.9316   30.4783   26.7436 C   0  0  0  0  0  0
   23.4349   31.0346   25.5375 C   0  0  0  0  0  0
   23.5349   32.4186   25.3026 C   0  0  0  0  0  0
   24.1187   33.2442   26.2597 C   0  0  0  0  0  0
   24.6382   32.6979   27.4384 C   0  0  0  0  0  0
   24.5442   31.3078   27.6852 C   0  0  0  0  0  0
   24.5862   28.1297   27.5422 N   0  0  0  0  0  0
   23.9401   26.8588   27.6461 N   0  0  0  0  0  0
   30.6774   30.1183   29.6168 N   0  0  0  0  0  0
   30.3184   27.7341   30.7072 O   0  0  0  0  0  0
   29.3439   29.5574   31.8089 O   0  0  0  0  0  0
   24.0525   35.0756   26.0381 Br  0  0  0  0  0  0
   20.8839   26.0627   26.0997 F   0  0  0  0  0  0
   21.1445   25.6108   28.2717 F   0  0  0  0  0  0
   22.4840   24.7343   26.7879 F   0  0  0  0  0  0
   29.6789   28.9993   30.5289 S   0  0  0  0  0  0
   30.6766   30.0832   28.6401 H   0  0  0  0  0  0
   31.2326   30.7785   30.0849 H   0  0  0  0  0  0
  1  3  1  0  0  0
  2  1  2  0  0  0
  2 17  1  0  0  0
  3 18  2  0  0  0
  3  4  1  0  0  0
  4 23  1  0  0  0
  4 25  1  0  0  0
  5 17  1  0  0  0
  5  6  2  0  0  0
  7  6  1  0  0  0
  8  7  2  0  0  0
  9 10  2  0  0  0
  9  8  1  0  0  0
 10  5  1  0  0  0
 11  2  1  0  0  0
 12 11  1  0  0  0
 13 12  2  0  0  0
 14 15  2  0  0  0
 14 13  1  0  0  0
 15 16  1  0  0  0
 16 11  2  0  0  0
 17 18  1  0  0  0
 19 28  1  0  0  0
 20 26  2  0  0  0
 22 14  1  0  0  0
 24  4  1  0  0  0
 26  8  1  0  0  0
 26 19  1  0  0  0
 26 21  2  0  0  0
 27 19  1  0  0  0
M  END
>  <CHROM.0>
179.41198828,67.62627099,77.42891009

>  <CHROM.1>
25.93799827,74.18872871,-42.04207073,-124.11190187,-36.43213168,25.13533369
29.81569141,27.76494646,2.17364021,-0.48477069,-0.24031149

>  <FORMUL>
      S58    C16 H11 Br1 F3 N3 O2 S1

>  <HET>
 S58  A 701      28

>  <HETNAM>
     S58 1-PHENYLSULFONAMIDE-3-TRIFLUOROMETHYL-5-PARABROMOPHENYL
   2 S58 PYRAZOLE

>  <Name>
S58.pdb

>  <RI>
0

>  <Rbt.Current_Directory>
/home/malgorzata/Desktop/rDOCK_IFD/test3

>  <Rbt.Executable>
rbdock ($Id: //depot/dev/client3/rdock/2013.1/src/exe/rbdock.cxx#4 $)

>  <Rbt.Library>
libRbt.so (2013.1, Build901 2013/11/27)

>  <Rbt.Parameter_File>
/home/malgorzata/Desktop/rDock_2013.1_src/data/scripts/soft_docking.prm

>  <Rbt.Receptor>
cavity.prm

>  <SCORE>
-22.4347

>  <SCORE.INTER>
-20.5272

>  <SCORE.INTER.CONST>
1

>  <SCORE.INTER.POLAR>
-1.74424

>  <SCORE.INTER.REPUL>
0.0579382

>  <SCORE.INTER.ROT>
5

>  <SCORE.INTER.VDW>
-25.2864

>  <SCORE.INTER.norm>
-0.789506

>  <SCORE.INTRA>
0.35443

>  <SCORE.INTRA.DIHEDRAL>
3.84432

>  <SCORE.INTRA.DIHEDRAL.0>
18.1022

>  <SCORE.INTRA.POLAR>
0

>  <SCORE.INTRA.POLAR.0>
0

>  <SCORE.INTRA.REPUL>
0

>  <SCORE.INTRA.REPUL.0>
0

>  <SCORE.INTRA.VDW>
-0.414435

>  <SCORE.INTRA.VDW.0>
-2.81782

>  <SCORE.INTRA.norm>
0.0136319

>  <SCORE.RESTR>
0

>  <SCORE.RESTR.CAVITY>
0

>  <SCORE.RESTR.norm>
0

>  <SCORE.SYSTEM>
-2.26195

>  <SCORE.SYSTEM.CONST>
0

>  <SCORE.SYSTEM.DIHEDRAL>
2.18461

>  <SCORE.SYSTEM.POLAR>
-0.366866

>  <SCORE.SYSTEM.VDW>
-2.10691

>  <SCORE.SYSTEM.norm>
-0.0869979

>  <SCORE.heavy>
26

>  <SCORE.norm>
-0.862872

$$$$
S58.pdb
  rDOCK(R)          3D
libRbt.so/2013.1/901 2013/11/27
 28 30  0  0  0  0  0  0  0  0999 V2000
   19.4677   24.6366   27.4849 C   0  0  0  0  0  0
   20.4953   25.1402   28.2231 C   0  0  0  0  0  0
   19.4824   25.3819   26.1929 C   0  0  0  0  0  0
   18.5127   25.2954   25.0524 C   0  0  0  0  0  0
   22.3857   26.6457   27.6804 C   0  0  0  0  0  0
   23.4861   25.7941   27.5199 C   0  0  0  0  0  0
   24.7692   26.3051   27.6470 C   0  0  0  0  0  0
   24.9489   27.6781   27.9330 C   0  0  0  0  0  0
   23.8429   28.5297   28.0922 C   0  0  0  0  0  0
   22.5532   28.0076   27.9673 C   0  0  0  0  0  0
   20.8178   24.7234   29.6221 C   0  0  0  0  0  0
   20.1845   23.5813   30.1749 C   0  0  0  0  0  0
   20.5856   23.0878   31.4303 C   0  0  0  0  0  0
   21.6107   23.7201   32.1289 C   0  0  0  0  0  0
   22.2191   24.8652   31.6032 C   0  0  0  0  0  0
   21.8236   25.3711   30.3425 C   0  0  0  0  0  0
   21.1400   26.1074   27.4860 N   0  0  0  0  0  0
   20.4840   26.2184   26.2208 N   0  0  0  0  0  0
   27.7550   27.0135   28.1107 N   0  0  0  0  0  0
   26.7092   29.1432   29.2823 O   0  0  0  0  0  0
   26.8776   29.1981   26.9464 O   0  0  0  0  0  0
   22.2718   22.9431   33.6674 Br  0  0  0  0  0  0
   17.3427   24.7716   25.4959 F   0  0  0  0  0  0
   19.0398   24.5630   24.0587 F   0  0  0  0  0  0
   18.2880   26.5370   24.6082 F   0  0  0  0  0  0
   26.6322   28.3625   28.0881 S   0  0  0  0  0  0
   27.4612   26.1330   27.8045 H   0  0  0  0  0  0
   28.6751   27.1425   28.4268 H   0  0  0  0  0  0
  1  3  1  0  0  0
  2  1  2  0  0  0
  2 17  1  0  0  0
  3 18  2  0  0  0
  3  4  1  0  0  0
  4 23  1  0  0  0
  4 25  1  0  0  0
  5 17  1  0  0  0
  5  6  2  0  0  0
  7  6  1  0  0  0
  8  7  2  0  0  0
  9 10  2  0  0  0
  9  8  1  0  0  0
 10  5  1  0  0  0
 11  2  1  0  0  0
 12 11  1  0  0  0
 13 12  2  0  0  0
 14 15  2  0  0  0
 14 13  1  0  0  0
 15 16  1  0  0  0
 16 11  2  0  0  0
 17 18  1  0  0  0
 19 28  1  0  0  0
 20 26  2  0  0  0
 22 14  1  0  0  0
 24  4  1  0  0  0
 26  8  1  0  0  0
 26 19  1  0  0  0
 26 21  2  0  0  0
 27 19  1  0  0  0
M  END
>  <CHROM.0>
-47.50417035,-23.10456527,-28.92045088

>  <CHROM.1>
20.40993696,65.72040852,11.20881373,-9.88400370,16.71275033,22.24885627,25.60063256
28.86435597,1.76829637,-0.46077755,-1.08469724

>  <FORMUL>
      S58    C16 H11 Br1 F3 N3 O2 S1

>  <HET>
 S58  A 701      28

>  <HETNAM>
     S58 1-PHENYLSULFONAMIDE-3-TRIFLUOROMETHYL-5-PARABROMOPHENYL
   2 S58 PYRAZOLE

>  <Name>
S58.pdb

>  <RI>
0

>  <Rbt.Current_Directory>
/home/malgorzata/Desktop/rDOCK_IFD/test3

>  <Rbt.Executable>
rbdock ($Id: //depot/dev/client3/rdock/2013.1/src/exe/rbdock.cxx#4 $)

>  <Rbt.Library>
libRbt.so (2013.1, Build901 2013/11/27)

>  <Rbt.Parameter_File>
/home/malgorzata/Desktop/rDock_2013.1_src/data/scripts/soft_docking.prm

>  <Rbt.Receptor>
cavity.prm

>  <SCORE>
-24.8729

>  <SCORE.INTER>
-26.3298

>  <SCORE.INTER.CONST>
1

>  <SCORE.INTER.POLAR>
-2.06628

>  <SCORE.INTER.REPUL>
0.000543313

>  <SCORE.INTER.ROT>
5

>  <SCORE.INTER.VDW>
-29.7072

>  <SCORE.INTER.norm>
-1.01269

>  <SCORE.INTRA>
-0.670722

>  <SCORE.INTRA.DIHEDRAL>
-3.31086

>  <SCORE.INTRA.DIHEDRAL.0>
18.1022

>  <SCORE.INTRA.POLAR>
0

>  <SCORE.INTRA.POLAR.0>
0

>  <SCORE.INTRA.REPUL>
0

>  <SCORE.INTRA.REPUL.0>
0

>  <SCORE.INTRA.VDW>
-0.00855116

>  <SCORE.INTRA.VDW.0>
-2.81782

>  <SCORE.INTRA.norm>
-0.025797

>  <SCORE.RESTR>
2.90707

>  <SCORE.RESTR.CAVITY>
2.90707

>  <SCORE.RESTR.norm>
0.11181

>  <SCORE.SYSTEM>
-0.779453

>  <SCORE.SYSTEM.CONST>
0

>  <SCORE.SYSTEM.DIHEDRAL>
4.60136

>  <SCORE.SYSTEM.POLAR>
-0.588141

>  <SCORE.SYSTEM.VDW>
-1.08045

>  <SCORE.SYSTEM.norm>
-0.029979

>  <SCORE.heavy>
26

>  <SCORE.norm>
-0.956651

$$$$
S58.pdb
  rDOCK(R)          3D
libRbt.so/2013.1/901 2013/11/27
 28 30  0  0  0  0  0  0  0  0999 V2000
   23.9279   32.1036   26.5886 C   0  0  0  0  0  0
   25.0398   32.0015   27.3681 C   0  0  0  0  0  0
   23.8360   30.8229   25.8293 C   0  0  0  0  0  0
   22.8580   30.4381   24.7598 C   0  0  0  0  0  0
   26.5357   30.1112   27.9374 C   0  0  0  0  0  0
   27.2847   30.8804   28.8369 C   0  0  0  0  0  0
   28.1860   30.2543   29.6850 C   0  0  0  0  0  0
   28.3336   28.8491   29.6327 C   0  0  0  0  0  0
   27.5798   28.0804   28.7300 C   0  0  0  0  0  0
   26.6771   28.7179   27.8754 C   0  0  0  0  0  0
   25.5536   33.0872   28.2581 C   0  0  0  0  0  0
   24.7827   33.4993   29.3747 C   0  0  0  0  0  0
   25.3161   34.4100   30.3056 C   0  0  0  0  0  0
   26.6064   34.9036   30.1320 C   0  0  0  0  0  0
   27.3611   34.5248   29.0164 C   0  0  0  0  0  0
   26.8350   33.6105   28.0734 C   0  0  0  0  0  0
   25.6153   30.7682   27.1624 N   0  0  0  0  0  0
   24.8260   30.0594   26.2042 N   0  0  0  0  0  0
   31.0291   27.8433   29.8984 N   0  0  0  0  0  0
   28.9626   26.7509   31.1386 O   0  0  0  0  0  0
   29.6747   28.8435   31.9141 O   0  0  0  0  0  0
   27.3723   35.9256   31.4650 Br  0  0  0  0  0  0
   22.7387   31.4568   23.8721 F   0  0  0  0  0  0
   21.6770   30.1203   25.3129 F   0  0  0  0  0  0
   23.3446   29.3669   24.1233 F   0  0  0  0  0  0
   29.5058   28.0150   30.7535 S   0  0  0  0  0  0
   31.3161   26.9607   29.5917 H   0  0  0  0  0  0
   31.5898   28.6302   29.7261 H   0  0  0  0  0  0
  1  3  1  0  0  0
  2  1  2  0  0  0
  2 17  1  0  0  0
  3 18  2  0  0  0
  3  4  1  0  0  0
  4 23  1  0  0  0
  4 25  1  0  0  0
  5 17  1  0  0  0
  5  6  2  0  0  0
  7  6  1  0  0  0
  8  7  2  0  0  0
  9 10  2  0  0  0
  9  8  1  0  0  0
 10  5  1  0  0  0
 11  2  1  0  0  0
 12 11  1  0  0  0
 13 12  2  0  0  0
 14 15  2  0  0  0
 14 13  1  0  0  0
 15 16  1  0  0  0
 16 11  2  0  0  0
 17 18  1  0  0  0
 19 28  1  0  0  0
 20 26  2  0  0  0
 22 14  1  0  0  0
 24  4  1  0  0  0
 26  8  1  0  0  0
 26 19  1  0  0  0
 26 21  2  0  0  0
 27 19  1  0  0  0
M  END
>  <CHROM.0>
41.79044286,-105.08997749,-46.32047167

>  <CHROM.1>
45.93691839,-19.94325568,65.74369372,-93.79136842,-108.20620793,26.46132260
31.49305212,28.73354672,2.52837836,0.76250529,-2.77286721

>  <FORMUL>
      S58    C16 H11 Br1 F3 N3 O2 S1

>  <HET>
 S58  A 701      28

>  <HETNAM>
     S58 1-PHENYLSULFONAMIDE-3-TRIFLUOROMETHYL-5-PARABROMOPHENYL
   2 S58 PYRAZOLE

>  <Name>
S58.pdb

>  <RI>
0

>  <Rbt.Current_Directory>
/home/malgorzata/Desktop/rDOCK_IFD/test3

>  <Rbt.Executable>
rbdock ($Id: //depot/dev/client3/rdock/2013.1/src/exe/rbdock.cxx#4 $)

>  <Rbt.Library>
libRbt.so (2013.1, Build901 2013/11/27)

>  <Rbt.Parameter_File>
/home/malgorzata/Desktop/rDock_2013.1_src/data/scripts/soft_docking.prm

>  <Rbt.Receptor>
cavity.prm

>  <SCORE>
-20.0248

>  <SCORE.INTER>
-17.214

>  <SCORE.INTER.CONST>
1

>  <SCORE.INTER.POLAR>
-2.24513

>  <SCORE.INTER.REPUL>
0.0825541

>  <SCORE.INTER.ROT>
5

>  <SCORE.INTER.VDW>
-20.3933

>  <SCORE.INTER.norm>
-0.662076

>  <SCORE.INTRA>
0.438951

>  <SCORE.INTRA.DIHEDRAL>
-4.22677

>  <SCORE.INTRA.DIHEDRAL.0>
18.1022

>  <SCORE.INTRA.POLAR>
0

>  <SCORE.INTRA.POLAR.0>
0

>  <SCORE.INTRA.REPUL>
0

>  <SCORE.INTRA.REPUL.0>
0

>  <SCORE.INTRA.VDW>
1.28431

>  <SCORE.INTRA.VDW.0>
-2.81782

>  <SCORE.INTRA.norm>
0.0168827

>  <SCORE.RESTR>
0.024593

>  <SCORE.RESTR.CAVITY>
0.024593

>  <SCORE.RESTR.norm>
0.000945886

>  <SCORE.SYSTEM>
-3.27437

>  <SCORE.SYSTEM.CONST>
0

>  <SCORE.SYSTEM.DIHEDRAL>
1.67237

>  <SCORE.SYSTEM.POLAR>
-0.771629

>  <SCORE.SYSTEM.VDW>
-1.48701

>  <SCORE.SYSTEM.norm>
-0.125937

>  <SCORE.heavy>
26

>  <SCORE.norm>
-0.770185

$$$$
S58.pdb
  rDOCK(R)          3D
libRbt.so/2013.1/901 2013/11/27
 28 30  0  0  0  0  0  0  0  0999 V2000
   22.8144   29.1567   27.5013 C   0  0  0  0  0  0
   24.0536   29.6702   27.7360 C   0  0  0  0  0  0
   22.9617   27.6738   27.5683 C   0  0  0  0  0  0
   21.9324   26.6186   27.2932 C   0  0  0  0  0  0
   26.1738   28.6684   28.5338 C   0  0  0  0  0  0
   26.2945   29.3316   29.7616 C   0  0  0  0  0  0
   27.5187   29.3441   30.4134 C   0  0  0  0  0  0
   28.6261   28.6848   29.8320 C   0  0  0  0  0  0
   28.5011   28.0194   28.6009 C   0  0  0  0  0  0
   27.2663   28.0146   27.9475 C   0  0  0  0  0  0
   24.3872   31.1272   27.7053 C   0  0  0  0  0  0
   24.7526   31.7348   26.4771 C   0  0  0  0  0  0
   24.9227   33.1297   26.4008 C   0  0  0  0  0  0
   24.7265   33.9154   27.5333 C   0  0  0  0  0  0
   24.3956   33.3194   28.7552 C   0  0  0  0  0  0
   24.2229   31.9180   28.8444 C   0  0  0  0  0  0
   24.9302   28.6325   27.9578 N   0  0  0  0  0  0
   24.2059   27.4043   27.8563 N   0  0  0  0  0  0
   31.4634   28.2427   29.5127 N   0  0  0  0  0  0
   30.1835   27.7615   31.7782 O   0  0  0  0  0  0
   30.4744   30.0092   31.1859 O   0  0  0  0  0  0
   24.7419   35.7545   27.3738 Br  0  0  0  0  0  0
   20.7800   27.2092   26.8892 F   0  0  0  0  0  0
   21.7469   25.8645   28.3880 F   0  0  0  0  0  0
   22.3905   25.8453   26.3025 F   0  0  0  0  0  0
   30.2364   28.6835   30.6880 S   0  0  0  0  0  0
   32.3696   28.5979   29.6017 H   0  0  0  0  0  0
   31.2419   27.6400   28.7705 H   0  0  0  0  0  0
  1  3  1  0  0  0
  2  1  2  0  0  0
  2 17  1  0  0  0
  3 18  2  0  0  0
  3  4  1  0  0  0
  4 23  1  0  0  0
  4 25  1  0  0  0
  5 17  1  0  0  0
  5  6  2  0  0  0
  7  6  1  0  0  0
  8  7  2  0  0  0
  9 10  2  0  0  0
  9  8  1  0  0  0
 10  5  1  0  0  0
 11  2  1  0  0  0
 12 11  1  0  0  0
 13 12  2  0  0  0
 14 15  2  0  0  0
 14 13  1  0  0  0
 15 16  1  0  0  0
 16 11  2  0  0  0
 17 18  1  0  0  0
 19 28  1  0  0  0
 20 26  2  0  0  0
 22 14  1  0  0  0
 24  4  1  0  0  0
 26  8  1  0  0  0
 26 19  1  0  0  0
 26 21  2  0  0  0
 27 19  1  0  0  0
M  END
>  <CHROM.0>
45.40617513,-132.30970890,-63.34271937

>  <CHROM.1>
2.84554687,49.73889570,-87.38465515,-162.73936195,149.20510484,25.59779084
30.21382550,28.35892338,2.14350366,-0.40668010,-0.10835032

>  <FORMUL>
      S58    C16 H11 Br1 F3 N3 O2 S1

>  <HET>
 S58  A 701      28

>  <HETNAM>
     S58 1-PHENYLSULFONAMIDE-3-TRIFLUOROMETHYL-5-PARABROMOPHENYL
   2 S58 PYRAZOLE

>  <Name>
S58.pdb

>  <RI>
0

>  <Rbt.Current_Directory>
/home/malgorzata/Desktop/rDOCK_IFD/test3

>  <Rbt.Executable>
rbdock ($Id: //depot/dev/client3/rdock/2013.1/src/exe/rbdock.cxx#4 $)

>  <Rbt.Library>
libRbt.so (2013.1, Build901 2013/11/27)

>  <Rbt.Parameter_File>
/home/malgorzata/Desktop/rDock_2013.1_src/data/scripts/soft_docking.prm

>  <Rbt.Receptor>
cavity.prm

>  <SCORE>
-22.2911

>  <SCORE.INTER>
-19.035

>  <SCORE.INTER.CONST>
1

>  <SCORE.INTER.POLAR>
-2.07731

>  <SCORE.INTER.REPUL>
0

>  <SCORE.INTER.ROT>
5

>  <SCORE.INTER.VDW>
-22.3721

>  <SCORE.INTER.norm>
-0.732115

>  <SCORE.INTRA>
0.808971

>  <SCORE.INTRA.DIHEDRAL>
6.74925

>  <SCORE.INTRA.DIHEDRAL.0>
18.1022

>  <SCORE.INTRA.POLAR>
0

>  <SCORE.INTRA.POLAR.0>
0

>  <SCORE.INTRA.REPUL>
0

>  <SCORE.INTRA.REPUL.0>
0

>  <SCORE.INTRA.VDW>
-0.54088

>  <SCORE.INTRA.VDW.0>
-2.81782

>  <SCORE.INTRA.norm>
0.0311143

>  <SCORE.RESTR>
0

>  <SCORE.RESTR.CAVITY>
0

>  <SCORE.RESTR.norm>
0

>  <SCORE.SYSTEM>
-4.06504

>  <SCORE.SYSTEM.CONST>
0

>  <SCORE.SYSTEM.DIHEDRAL>
0.818235

>  <SCORE.SYSTEM.POLAR>
-0.841349

>  <SCORE.SYSTEM.VDW>
-1.61357

>  <SCORE.SYSTEM.norm>
-0.156348

>  <SCORE.heavy>
26

>  <SCORE.norm>
-0.857348

$$$$
S58.pdb
  rDOCK(R)          3D
libRbt.so/2013.1/901 2013/11/27
 28 30  0  0  0  0  0  0  0  0999 V2000
   25.6989   32.0068   27.3359 C   0  0  0  0  0  0
   25.6663   30.6580   27.5205 C   0  0  0  0  0  0
   24.4024   32.3678   26.6926 C   0  0  0  0  0  0
   23.9505   33.7045   26.1851 C   0  0  0  0  0  0
   23.8637   28.9701   27.3287 C   0  0  0  0  0  0
   23.0056   28.4502   26.3515 C   0  0  0  0  0  0
   22.4249   27.2056   26.5450 C   0  0  0  0  0  0
   22.7097   26.4777   27.7232 C   0  0  0  0  0  0
   23.5719   27.0018   28.7009 C   0  0  0  0  0  0
   24.1499   28.2579   28.5017 C   0  0  0  0  0  0
   26.7916   29.8524   28.0858 C   0  0  0  0  0  0
   27.2471   28.7035   27.3903 C   0  0  0  0  0  0
   28.3984   28.0222   27.8270 C   0  0  0  0  0  0
   29.0947   28.4808   28.9421 C   0  0  0  0  0  0
   28.6336   29.5955   29.6509 C   0  0  0  0  0  0
   27.4768   30.2881   29.2219 C   0  0  0  0  0  0
   24.4602   30.1760   27.0650 N   0  0  0  0  0  0
   23.6962   31.2772   26.5678 N   0  0  0  0  0  0
   21.9881   23.9911   26.4412 N   0  0  0  0  0  0
   20.6331   24.9999   28.4780 O   0  0  0  0  0  0
   22.7577   24.1324   28.9483 O   0  0  0  0  0  0
   30.7155   27.7118   29.3773 Br  0  0  0  0  0  0
   22.6046   33.8052   26.3205 F   0  0  0  0  0  0
   24.3346   33.8626   24.9087 F   0  0  0  0  0  0
   24.5308   34.6473   26.9360 F   0  0  0  0  0  0
   21.9622   24.8343   27.9805 S   0  0  0  0  0  0
   22.8413   23.8211   25.9958 H   0  0  0  0  0  0
   21.1498   23.6888   26.0299 H   0  0  0  0  0  0
  1  3  1  0  0  0
  2  1  2  0  0  0
  2 17  1  0  0  0
  3 18  2  0  0  0
  3  4  1  0  0  0
  4 23  1  0  0  0
  4 25  1  0  0  0
  5 17  1  0  0  0
  5  6  2  0  0  0
  7  6  1  0  0  0
  8  7  2  0  0  0
  9 10  2  0  0  0
  9  8  1  0  0  0
 10  5  1  0  0  0
 11  2  1  0  0  0
 12 11  1  0  0  0
 13 12  2  0  0  0
 14 15  2  0  0  0
 14 13  1  0  0  0
 15 16  1  0  0  0
 16 11  2  0  0  0
 17 18  1  0  0  0
 19 28  1  0  0  0
 20 26  2  0  0  0
 22 14  1  0  0  0
 24  4  1  0  0  0
 26  8  1  0  0  0
 26 19  1  0  0  0
 26 21  2  0  0  0
 27 19  1  0  0  0
M  END
>  <CHROM.0>
61.66764517,-112.67296346,-60.05247530

>  <CHROM.1>
-148.76980876,-151.77126963,-128.76604195,40.09647636,59.83936093,25.45532092
28.89092160,27.80709955,0.09776644,-0.25893994,-0.23902555

>  <FORMUL>
      S58    C16 H11 Br1 F3 N3 O2 S1

>  <HET>
 S58  A 701      28

>  <HETNAM>
     S58 1-PHENYLSULFONAMIDE-3-TRIFLUOROMETHYL-5-PARABROMOPHENYL
   2 S58 PYRAZOLE

>  <Name>
S58.pdb

>  <RI>
0

>  <Rbt.Current_Directory>
/home/malgorzata/Desktop/rDOCK_IFD/test3

>  <Rbt.Executable>
rbdock ($Id: //depot/dev/client3/rdock/2013.1/src/exe/rbdock.cxx#4 $)

>  <Rbt.Library>
libRbt.so (2013.1, Build901 2013/11/27)

>  <Rbt.Parameter_File>
/home/malgorzata/Desktop/rDock_2013.1_src/data/scripts/soft_docking.prm

>  <Rbt.Receptor>
cavity.prm

>  <SCORE>
-27.2954

>  <SCORE.INTER>
-22.4259

>  <SCORE.INTER.CONST>
1

>  <SCORE.INTER.POLAR>
-1.97947

>  <SCORE.INTER.REPUL>
0

>  <SCORE.INTER.ROT>
5

>  <SCORE.INTER.VDW>
-26.0957

>  <SCORE.INTER.norm>
-0.862533

>  <SCORE.INTRA>
-0.745305

>  <SCORE.INTRA.DIHEDRAL>
-3.43034

>  <SCORE.INTRA.DIHEDRAL.0>
18.1022

>  <SCORE.INTRA.POLAR>
0

>  <SCORE.INTRA.POLAR.0>
0

>  <SCORE.INTRA.REPUL>
0

>  <SCORE.INTRA.REPUL.0>
0

>  <SCORE.INTRA.VDW>
-0.0592376

>  <SCORE.INTRA.VDW.0>
-2.81782

>  <SCORE.INTRA.norm>
-0.0286656

>  <SCORE.RESTR>
0.000221277

>  <SCORE.RESTR.CAVITY>
0.000221277

>  <SCORE.RESTR.norm>
8.51066e-06

>  <SCORE.SYSTEM>
-4.12445

>  <SCORE.SYSTEM.CONST>
0

>  <SCORE.SYSTEM.DIHEDRAL>
0.809377

>  <SCORE.SYSTEM.POLAR>
-0.817089

>  <SCORE.SYSTEM.VDW>
-1.75104

>  <SCORE.SYSTEM.norm>
-0.158633

>  <SCORE.heavy>
26

>  <SCORE.norm>
-1.04982

$$$$
