RAL.pdb
  rDOCK(R)          3D
libRbt.so/2013.1/901 2013/11/27
 36 40  0  0  0  0  0  0  0  0999 V2000
   34.7657   -0.5421   26.7287 C   0  0  0  0  0  0
   35.6780    0.4800   26.6745 C   0  0  0  0  0  0
   35.4349    1.7102   27.2188 C   0  0  0  0  0  0
   36.4420    2.6379   27.1232 O   0  0  0  0  0  0
   34.2200    1.9412   27.8740 C   0  0  0  0  0  0
   33.3232    0.9046   27.9561 C   0  0  0  0  0  0
   31.8060    0.8764   28.6107 S   0  0  0  0  0  0
   31.4375   -0.7386   28.2862 C   0  0  0  0  0  0
   30.1138   -1.3587   28.5780 C   0  0  0  0  0  0
   29.1611   -0.5004   29.0916 C   0  0  0  0  0  0
   27.8824   -0.9893   29.3045 C   0  0  0  0  0  0
   27.5640   -2.3093   29.0528 C   0  0  0  0  0  0
   26.2484   -2.7090   29.2942 O   0  0  0  0  0  0
   28.5036   -3.1525   28.4970 C   0  0  0  0  0  0
   29.7787   -2.6488   28.2712 C   0  0  0  0  0  0
   33.5961   -0.3621   27.3651 C   0  0  0  0  0  0
   32.4937   -1.2957   27.5348 C   0  0  0  0  0  0
   32.5196   -2.5751   27.0133 C   0  0  0  0  0  0
   32.4148   -3.5432   27.7769 O   0  0  0  0  0  0
   32.6823   -2.8461   25.5807 C   0  0  0  0  0  0
   33.0750   -4.0942   25.1409 C   0  0  0  0  0  0
   33.2518   -4.3780   23.8005 C   0  0  0  0  0  0
   33.0543   -3.3602   22.8690 C   0  0  0  0  0  0
   32.6528   -2.1076   23.2977 C   0  0  0  0  0  0
   32.4567   -1.8581   24.6457 C   0  0  0  0  0  0
   33.1791   -3.4002   21.5117 O   0  0  0  0  0  0
   33.3075   -4.6859   20.9239 C   0  0  0  0  0  0
   34.7096   -5.2047   21.1008 C   0  0  0  0  0  0
   35.3634   -6.3179   20.4399 N   0  0  0  0  0  0
   36.4029   -5.7895   19.5335 C   0  0  0  0  0  0
   37.2747   -6.8823   18.8828 C   0  0  0  0  0  0
   36.3345   -7.7490   18.0296 C   0  0  0  0  0  0
   35.3850   -8.4117   19.0745 C   0  0  0  0  0  0
   34.5378   -7.2838   19.6889 C   0  0  0  0  0  0
   36.8024    3.0199   27.8992 H   0  0  0  0  0  0
   25.9607   -2.8687   30.1716 H   0  0  0  0  0  0
  1  2  2  0  0  0
  1 16  1  0  0  0
  2  3  1  0  0  0
  3  4  1  0  0  0
  3  5  2  0  0  0
  4 35  1  0  0  0
  5  6  1  0  0  0
  6  7  1  0  0  0
  6 16  2  0  0  0
  7  8  1  0  0  0
  8  9  1  0  0  0
  8 17  2  0  0  0
  9 10  2  0  0  0
  9 15  1  0  0  0
 10 11  1  0  0  0
 11 12  2  0  0  0
 12 13  1  0  0  0
 12 14  1  0  0  0
 13 36  1  0  0  0
 14 15  2  0  0  0
 16 17  1  0  0  0
 17 18  1  0  0  0
 18 19  2  0  0  0
 18 20  1  0  0  0
 20 21  2  0  0  0
 20 25  1  0  0  0
 21 22  1  0  0  0
 22 23  2  0  0  0
 23 24  1  0  0  0
 23 26  1  0  0  0
 24 25  2  0  0  0
 26 27  1  0  0  0
 27 28  1  0  0  0
 28 29  1  0  0  0
 29 30  1  0  0  0
 29 34  1  0  0  0
 30 31  1  0  0  0
 31 32  1  0  0  0
 32 33  1  0  0  0
 33 34  1  0  0  0
M  END
>  <CHROM.0>
-109.21174524,-60.56480275,55.26002592

>  <CHROM.1>
-121.42209965,2.64964241,-77.48527315,-58.81266559,161.70063677,11.76606936
-77.81183515,-165.81226959,110.46029585,32.84323377,-2.52773259,25.24886031
-2.03926632,-0.49040560,-2.39460450

>  <FORMUL>
      RAL    C28 H27 N1 O4 S1

>  <HET>
 RAL  A 600      34

>  <HETNAM>
     RAL RALOXIFENE

>  <Name>
RAL.pdb

>  <RI>
0

>  <Rbt.Current_Directory>
/home/malgorzata/Desktop/rDOCK_IFD/Wyniki/6_estrogen_receptor

>  <Rbt.Executable>
rbdock ($Id: //depot/dev/client3/rdock/2013.1/src/exe/rbdock.cxx#4 $)

>  <Rbt.Library>
libRbt.so (2013.1, Build901 2013/11/27)

>  <Rbt.Parameter_File>
/home/malgorzata/Desktop/rDock_2013.1_src/data/scripts/soft_docking.prm

>  <Rbt.Receptor>
cavity.prm

>  <SCORE>
-27.7786

>  <SCORE.INTER>
-28.5929

>  <SCORE.INTER.CONST>
1

>  <SCORE.INTER.POLAR>
-0.440997

>  <SCORE.INTER.REPUL>
0

>  <SCORE.INTER.ROT>
7

>  <SCORE.INTER.VDW>
-39.4935

>  <SCORE.INTER.norm>
-0.840968

>  <SCORE.INTRA>
1.79278

>  <SCORE.INTRA.DIHEDRAL>
3.83357

>  <SCORE.INTRA.DIHEDRAL.0>
18.358

>  <SCORE.INTRA.POLAR>
0

>  <SCORE.INTRA.POLAR.0>
0

>  <SCORE.INTRA.REPUL>
0

>  <SCORE.INTRA.REPUL.0>
0

>  <SCORE.INTRA.VDW>
1.02606

>  <SCORE.INTRA.VDW.0>
-1.94569

>  <SCORE.INTRA.norm>
0.0527288

>  <SCORE.RESTR>
0.0534581

>  <SCORE.RESTR.CAVITY>
0.0106916

>  <SCORE.RESTR.norm>
0.0015723

>  <SCORE.SYSTEM>
-1.03187

>  <SCORE.SYSTEM.CONST>
0

>  <SCORE.SYSTEM.DIHEDRAL>
0.804906

>  <SCORE.SYSTEM.VDW>
-1.43432

>  <SCORE.SYSTEM.norm>
-0.030349

>  <SCORE.heavy>
34

>  <SCORE.norm>
-0.817016

$$$$
RAL.pdb
  rDOCK(R)          3D
libRbt.so/2013.1/901 2013/11/27
 36 40  0  0  0  0  0  0  0  0999 V2000
   33.6496   -0.3744   26.6614 C   0  0  0  0  0  0
   34.8234   -0.1882   27.3451 C   0  0  0  0  0  0
   34.8699   -0.0787   28.7070 C   0  0  0  0  0  0
   36.1112    0.0754   29.2722 O   0  0  0  0  0  0
   33.6834   -0.1767   29.4428 C   0  0  0  0  0  0
   32.5145   -0.3975   28.7569 C   0  0  0  0  0  0
   30.9668   -0.5086   29.3257 S   0  0  0  0  0  0
   30.1908   -0.7777   27.8510 C   0  0  0  0  0  0
   28.7110   -0.8781   27.7024 C   0  0  0  0  0  0
   28.2353   -2.1324   27.3731 C   0  0  0  0  0  0
   26.8640   -2.3181   27.3044 C   0  0  0  0  0  0
   25.9837   -1.2756   27.5170 C   0  0  0  0  0  0
   24.6197   -1.5601   27.4303 O   0  0  0  0  0  0
   26.4589   -0.0357   27.8907 C   0  0  0  0  0  0
   27.8352    0.1368   27.9735 C   0  0  0  0  0  0
   32.4934   -0.4908   27.3360 C   0  0  0  0  0  0
   31.1476   -0.6820   26.8185 C   0  0  0  0  0  0
   30.8789   -0.7649   25.4655 C   0  0  0  0  0  0
   29.8731   -0.2048   25.0118 O   0  0  0  0  0  0
   31.7313   -1.5071   24.5303 C   0  0  0  0  0  0
   32.3151   -0.8705   23.4535 C   0  0  0  0  0  0
   33.1106   -1.5431   22.5462 C   0  0  0  0  0  0
   33.3030   -2.9136   22.7115 C   0  0  0  0  0  0
   32.7294   -3.5605   23.7916 C   0  0  0  0  0  0
   31.9584   -2.8563   24.7012 C   0  0  0  0  0  0
   34.0279   -3.7789   21.9466 O   0  0  0  0  0  0
   35.3933   -3.9452   22.2975 C   0  0  0  0  0  0
   35.7740   -5.4008   22.2438 C   0  0  0  0  0  0
   36.7225   -6.0668   21.3720 N   0  0  0  0  0  0
   38.0904   -5.7802   21.8494 C   0  0  0  0  0  0
   39.1881   -6.5565   21.0943 C   0  0  0  0  0  0
   39.1213   -6.1032   19.6270 C   0  0  0  0  0  0
   37.7240   -6.6006   19.1447 C   0  0  0  0  0  0
   36.6686   -5.7950   19.9223 C   0  0  0  0  0  0
   36.2264   -0.0559   30.1928 H   0  0  0  0  0  0
   24.3070   -2.1635   26.7852 H   0  0  0  0  0  0
  1  2  2  0  0  0
  1 16  1  0  0  0
  2  3  1  0  0  0
  3  4  1  0  0  0
  3  5  2  0  0  0
  4 35  1  0  0  0
  5  6  1  0  0  0
  6  7  1  0  0  0
  6 16  2  0  0  0
  7  8  1  0  0  0
  8  9  1  0  0  0
  8 17  2  0  0  0
  9 10  2  0  0  0
  9 15  1  0  0  0
 10 11  1  0  0  0
 11 12  2  0  0  0
 12 13  1  0  0  0
 12 14  1  0  0  0
 13 36  1  0  0  0
 14 15  2  0  0  0
 16 17  1  0  0  0
 17 18  1  0  0  0
 18 19  2  0  0  0
 18 20  1  0  0  0
 20 21  2  0  0  0
 20 25  1  0  0  0
 21 22  1  0  0  0
 22 23  2  0  0  0
 23 24  1  0  0  0
 23 26  1  0  0  0
 24 25  2  0  0  0
 26 27  1  0  0  0
 27 28  1  0  0  0
 28 29  1  0  0  0
 29 30  1  0  0  0
 29 34  1  0  0  0
 30 31  1  0  0  0
 31 32  1  0  0  0
 32 33  1  0  0  0
 33 34  1  0  0  0
M  END
>  <CHROM.0>
132.30027430,-60.56480275,-154.96519397

>  <CHROM.1>
-164.89988987,-111.41303273,-37.63392200,40.89628080,-121.49206011,89.60981495
136.91438334,115.65096641,76.75886439,32.58136750,-2.22376507,25.28227496
-2.35516393,0.03211499,-2.14447151

>  <FORMUL>
      RAL    C28 H27 N1 O4 S1

>  <HET>
 RAL  A 600      34

>  <HETNAM>
     RAL RALOXIFENE

>  <Name>
RAL.pdb

>  <RI>
0

>  <Rbt.Current_Directory>
/home/malgorzata/Desktop/rDOCK_IFD/Wyniki/6_estrogen_receptor

>  <Rbt.Executable>
rbdock ($Id: //depot/dev/client3/rdock/2013.1/src/exe/rbdock.cxx#4 $)

>  <Rbt.Library>
libRbt.so (2013.1, Build901 2013/11/27)

>  <Rbt.Parameter_File>
/home/malgorzata/Desktop/rDock_2013.1_src/data/scripts/soft_docking.prm

>  <Rbt.Receptor>
cavity.prm

>  <SCORE>
-29.3035

>  <SCORE.INTER>
-32.1681

>  <SCORE.INTER.CONST>
1

>  <SCORE.INTER.POLAR>
-3.37985

>  <SCORE.INTER.REPUL>
1.31219

>  <SCORE.INTER.ROT>
7

>  <SCORE.INTER.VDW>
-39.6376

>  <SCORE.INTER.norm>
-0.946121

>  <SCORE.INTRA>
3.31444

>  <SCORE.INTRA.DIHEDRAL>
25.6646

>  <SCORE.INTRA.DIHEDRAL.0>
18.358

>  <SCORE.INTRA.POLAR>
0

>  <SCORE.INTRA.POLAR.0>
0

>  <SCORE.INTRA.REPUL>
0

>  <SCORE.INTRA.REPUL.0>
0

>  <SCORE.INTRA.VDW>
-1.81848

>  <SCORE.INTRA.VDW.0>
-1.94569

>  <SCORE.INTRA.norm>
0.0974834

>  <SCORE.RESTR>
0

>  <SCORE.RESTR.CAVITY>
0

>  <SCORE.RESTR.norm>
0

>  <SCORE.SYSTEM>
-0.449817

>  <SCORE.SYSTEM.CONST>
0

>  <SCORE.SYSTEM.DIHEDRAL>
0.801895

>  <SCORE.SYSTEM.VDW>
-0.850765

>  <SCORE.SYSTEM.norm>
-0.0132299

>  <SCORE.heavy>
34

>  <SCORE.norm>
-0.861868

$$$$
RAL.pdb
  rDOCK(R)          3D
libRbt.so/2013.1/901 2013/11/27
 36 40  0  0  0  0  0  0  0  0999 V2000
   33.0862   -1.5802   27.9347 C   0  0  0  0  0  0
   34.3585   -1.2494   28.3243 C   0  0  0  0  0  0
   34.6313   -0.1381   29.0722 C   0  0  0  0  0  0
   35.9431    0.0645   29.4217 O   0  0  0  0  0  0
   33.5784    0.6907   29.4764 C   0  0  0  0  0  0
   32.3022    0.3372   29.1133 C   0  0  0  0  0  0
   30.8749    1.1231   29.3893 S   0  0  0  0  0  0
   29.8471    0.0244   28.6239 C   0  0  0  0  0  0
   28.3811    0.2396   28.4615 C   0  0  0  0  0  0
   27.8871    0.0014   27.1937 C   0  0  0  0  0  0
   26.5198    0.0975   26.9923 C   0  0  0  0  0  0
   25.6643    0.4610   28.0136 C   0  0  0  0  0  0
   24.3020    0.5274   27.7161 O   0  0  0  0  0  0
   26.1537    0.6533   29.2888 C   0  0  0  0  0  0
   27.5245    0.5383   29.4850 C   0  0  0  0  0  0
   32.0489   -0.8175   28.3193 C   0  0  0  0  0  0
   30.6350   -0.9766   28.0174 C   0  0  0  0  0  0
   30.1567   -2.0075   27.2313 C   0  0  0  0  0  0
   29.0910   -2.5578   27.5356 O   0  0  0  0  0  0
   30.8678   -2.4984   26.0457 C   0  0  0  0  0  0
   30.6128   -3.7588   25.5439 C   0  0  0  0  0  0
   31.2753   -4.2567   24.4386 C   0  0  0  0  0  0
   32.2519   -3.4685   23.8322 C   0  0  0  0  0  0
   32.5101   -2.2005   24.3216 C   0  0  0  0  0  0
   31.8117   -1.7159   25.4148 C   0  0  0  0  0  0
   33.0344   -3.7487   22.7513 O   0  0  0  0  0  0
   32.6149   -3.2091   21.5072 C   0  0  0  0  0  0
   31.5823   -4.1011   20.8712 C   0  0  0  0  0  0
   31.3668   -4.3949   19.4673 N   0  0  0  0  0  0
   29.9170   -4.5465   19.2299 C   0  0  0  0  0  0
   29.5444   -4.7121   17.7427 C   0  0  0  0  0  0
   30.2157   -6.0080   17.2598 C   0  0  0  0  0  0
   31.7413   -5.7030   17.3704 C   0  0  0  0  0  0
   32.0605   -5.5516   18.8680 C   0  0  0  0  0  0
   36.2839   -0.3195   30.2055 H   0  0  0  0  0  0
   23.7679    1.1885   28.1108 H   0  0  0  0  0  0
  1  2  2  0  0  0
  1 16  1  0  0  0
  2  3  1  0  0  0
  3  4  1  0  0  0
  3  5  2  0  0  0
  4 35  1  0  0  0
  5  6  1  0  0  0
  6  7  1  0  0  0
  6 16  2  0  0  0
  7  8  1  0  0  0
  8  9  1  0  0  0
  8 17  2  0  0  0
  9 10  2  0  0  0
  9 15  1  0  0  0
 10 11  1  0  0  0
 11 12  2  0  0  0
 12 13  1  0  0  0
 12 14  1  0  0  0
 13 36  1  0  0  0
 14 15  2  0  0  0
 16 17  1  0  0  0
 17 18  1  0  0  0
 18 19  2  0  0  0
 18 20  1  0  0  0
 20 21  2  0  0  0
 20 25  1  0  0  0
 21 22  1  0  0  0
 22 23  2  0  0  0
 23 24  1  0  0  0
 23 26  1  0  0  0
 24 25  2  0  0  0
 26 27  1  0  0  0
 27 28  1  0  0  0
 28 29  1  0  0  0
 29 30  1  0  0  0
 29 34  1  0  0  0
 30 31  1  0  0  0
 31 32  1  0  0  0
 32 33  1  0  0  0
 33 34  1  0  0  0
M  END
>  <CHROM.0>
49.08855585,-60.56480275,177.43084691

>  <CHROM.1>
-87.92731763,132.61067330,-143.78182964,-38.47938664,159.14664839,98.88388961
-83.67013655,-144.99492013,-144.60611198,30.72550662,-1.82283646,25.47517983
-1.68216959,0.12297892,-2.04576204

>  <FORMUL>
      RAL    C28 H27 N1 O4 S1

>  <HET>
 RAL  A 600      34

>  <HETNAM>
     RAL RALOXIFENE

>  <Name>
RAL.pdb

>  <RI>
0

>  <Rbt.Current_Directory>
/home/malgorzata/Desktop/rDOCK_IFD/Wyniki/6_estrogen_receptor

>  <Rbt.Executable>
rbdock ($Id: //depot/dev/client3/rdock/2013.1/src/exe/rbdock.cxx#4 $)

>  <Rbt.Library>
libRbt.so (2013.1, Build901 2013/11/27)

>  <Rbt.Parameter_File>
/home/malgorzata/Desktop/rDock_2013.1_src/data/scripts/soft_docking.prm

>  <Rbt.Receptor>
cavity.prm

>  <SCORE>
-27.1053

>  <SCORE.INTER>
-32.2561

>  <SCORE.INTER.CONST>
1

>  <SCORE.INTER.POLAR>
-2.30868

>  <SCORE.INTER.REPUL>
0

>  <SCORE.INTER.ROT>
7

>  <SCORE.INTER.VDW>
-36.8066

>  <SCORE.INTER.norm>
-0.94871

>  <SCORE.INTRA>
2.93474

>  <SCORE.INTRA.DIHEDRAL>
12.5759

>  <SCORE.INTRA.DIHEDRAL.0>
18.358

>  <SCORE.INTRA.POLAR>
0

>  <SCORE.INTRA.POLAR.0>
0

>  <SCORE.INTRA.REPUL>
0

>  <SCORE.INTRA.REPUL.0>
0

>  <SCORE.INTRA.VDW>
0.419566

>  <SCORE.INTRA.VDW.0>
-1.94569

>  <SCORE.INTRA.norm>
0.086316

>  <SCORE.RESTR>
2.5225

>  <SCORE.RESTR.CAVITY>
0.504499

>  <SCORE.RESTR.norm>
0.074191

>  <SCORE.SYSTEM>
-0.30644

>  <SCORE.SYSTEM.CONST>
0

>  <SCORE.SYSTEM.DIHEDRAL>
0.804628

>  <SCORE.SYSTEM.VDW>
-0.708754

>  <SCORE.SYSTEM.norm>
-0.00901295

>  <SCORE.heavy>
34

>  <SCORE.norm>
-0.797216

$$$$
RAL.pdb
  rDOCK(R)          3D
libRbt.so/2013.1/901 2013/11/27
 36 40  0  0  0  0  0  0  0  0999 V2000
   30.8630   -3.4253   19.6734 C   0  0  0  0  0  0
   29.9728   -2.7799   18.8544 C   0  0  0  0  0  0
   30.3480   -2.2010   17.6742 C   0  0  0  0  0  0
   29.3551   -1.6119   16.9319 O   0  0  0  0  0  0
   31.6850   -2.2793   17.2677 C   0  0  0  0  0  0
   32.5665   -2.9562   18.0740 C   0  0  0  0  0  0
   34.1948   -3.1777   17.8981 S   0  0  0  0  0  0
   34.4622   -4.0905   19.2926 C   0  0  0  0  0  0
   35.8118   -4.5354   19.7427 C   0  0  0  0  0  0
   36.3653   -5.5694   19.0131 C   0  0  0  0  0  0
   37.6538   -5.9751   19.3211 C   0  0  0  0  0  0
   38.3637   -5.3973   20.3552 C   0  0  0  0  0  0
   39.6566   -5.8697   20.5880 O   0  0  0  0  0  0
   37.8272   -4.3347   21.0521 C   0  0  0  0  0  0
   36.5409   -3.9237   20.7250 C   0  0  0  0  0  0
   32.1510   -3.5354   19.3069 C   0  0  0  0  0  0
   33.2539   -4.1633   20.0175 C   0  0  0  0  0  0
   33.0947   -4.7601   21.2537 C   0  0  0  0  0  0
   33.0977   -5.9948   21.3357 O   0  0  0  0  0  0
   32.9048   -3.9912   22.4886 C   0  0  0  0  0  0
   32.4905   -4.6142   23.6486 C   0  0  0  0  0  0
   32.2880   -3.9172   24.8240 C   0  0  0  0  0  0
   32.4813   -2.5369   24.8256 C   0  0  0  0  0  0
   32.9043   -1.9030   23.6709 C   0  0  0  0  0  0
   33.1259   -2.6304   22.5135 C   0  0  0  0  0  0
   32.3332   -1.6487   25.8497 O   0  0  0  0  0  0
   31.4214   -2.0097   26.8759 C   0  0  0  0  0  0
   31.2677   -0.8812   27.8605 C   0  0  0  0  0  0
   32.2708   -0.2600   28.7040 N   0  0  0  0  0  0
   33.0545    0.6910   27.8900 C   0  0  0  0  0  0
   34.0575    1.5298   28.7075 C   0  0  0  0  0  0
   35.0576    0.5419   29.3293 C   0  0  0  0  0  0
   34.1875   -0.3055   30.3079 C   0  0  0  0  0  0
   33.2106   -1.1235   29.4453 C   0  0  0  0  0  0
   29.3627   -0.6857   16.7904 H   0  0  0  0  0  0
   40.3820   -5.4962   20.1272 H   0  0  0  0  0  0
  1  2  2  0  0  0
  1 16  1  0  0  0
  2  3  1  0  0  0
  3  4  1  0  0  0
  3  5  2  0  0  0
  4 35  1  0  0  0
  5  6  1  0  0  0
  6  7  1  0  0  0
  6 16  2  0  0  0
  7  8  1  0  0  0
  8  9  1  0  0  0
  8 17  2  0  0  0
  9 10  2  0  0  0
  9 15  1  0  0  0
 10 11  1  0  0  0
 11 12  2  0  0  0
 12 13  1  0  0  0
 12 14  1  0  0  0
 13 36  1  0  0  0
 14 15  2  0  0  0
 16 17  1  0  0  0
 17 18  1  0  0  0
 18 19  2  0  0  0
 18 20  1  0  0  0
 20 21  2  0  0  0
 20 25  1  0  0  0
 21 22  1  0  0  0
 22 23  2  0  0  0
 23 24  1  0  0  0
 23 26  1  0  0  0
 24 25  2  0  0  0
 26 27  1  0  0  0
 27 28  1  0  0  0
 28 29  1  0  0  0
 29 30  1  0  0  0
 29 34  1  0  0  0
 30 31  1  0  0  0
 31 32  1  0  0  0
 32 33  1  0  0  0
 33 34  1  0  0  0
M  END
>  <CHROM.0>
-177.05873947,-60.56480275,-16.65111683

>  <CHROM.1>
114.95077184,-74.22607699,87.51877404,-73.55188411,167.17323796,-26.31241522
-174.62090397,-61.05561443,79.39279859,33.56457240,-2.89782689,22.42425824
1.46849342,0.39071718,-1.88065874

>  <FORMUL>
      RAL    C28 H27 N1 O4 S1

>  <HET>
 RAL  A 600      34

>  <HETNAM>
     RAL RALOXIFENE

>  <Name>
RAL.pdb

>  <RI>
0

>  <Rbt.Current_Directory>
/home/malgorzata/Desktop/rDOCK_IFD/Wyniki/6_estrogen_receptor

>  <Rbt.Executable>
rbdock ($Id: //depot/dev/client3/rdock/2013.1/src/exe/rbdock.cxx#4 $)

>  <Rbt.Library>
libRbt.so (2013.1, Build901 2013/11/27)

>  <Rbt.Parameter_File>
/home/malgorzata/Desktop/rDock_2013.1_src/data/scripts/soft_docking.prm

>  <Rbt.Receptor>
cavity.prm

>  <SCORE>
-25.3631

>  <SCORE.INTER>
-26.3554

>  <SCORE.INTER.CONST>
1

>  <SCORE.INTER.POLAR>
-0.438548

>  <SCORE.INTER.REPUL>
0

>  <SCORE.INTER.ROT>
7

>  <SCORE.INTER.VDW>
-37.2644

>  <SCORE.INTER.norm>
-0.77516

>  <SCORE.INTRA>
1.61712

>  <SCORE.INTRA.DIHEDRAL>
14.4435

>  <SCORE.INTRA.DIHEDRAL.0>
18.358

>  <SCORE.INTRA.POLAR>
0

>  <SCORE.INTRA.POLAR.0>
0

>  <SCORE.INTRA.REPUL>
0

>  <SCORE.INTRA.REPUL.0>
0

>  <SCORE.INTRA.VDW>
-1.27158

>  <SCORE.INTRA.VDW.0>
-1.94569

>  <SCORE.INTRA.norm>
0.0475625

>  <SCORE.RESTR>
0.0774289

>  <SCORE.RESTR.CAVITY>
0.0154858

>  <SCORE.RESTR.norm>
0.00227732

>  <SCORE.SYSTEM>
-0.702191

>  <SCORE.SYSTEM.CONST>
0

>  <SCORE.SYSTEM.DIHEDRAL>
0.802476

>  <SCORE.SYSTEM.VDW>
-1.10343

>  <SCORE.SYSTEM.norm>
-0.0206527

>  <SCORE.heavy>
34

>  <SCORE.norm>
-0.745973

$$$$
RAL.pdb
  rDOCK(R)          3D
libRbt.so/2013.1/901 2013/11/27
 36 40  0  0  0  0  0  0  0  0999 V2000
   27.8742   -2.3787   26.5089 C   0  0  0  0  0  0
   26.7993   -2.5727   27.3377 C   0  0  0  0  0  0
   26.7632   -2.0927   28.6172 C   0  0  0  0  0  0
   25.6165   -2.3292   29.3334 O   0  0  0  0  0  0
   27.8510   -1.3591   29.1043 C   0  0  0  0  0  0
   28.9108   -1.1377   28.2597 C   0  0  0  0  0  0
   30.3419   -0.3636   28.5494 S   0  0  0  0  0  0
   31.0272   -0.5508   27.0181 C   0  0  0  0  0  0
   32.4099   -0.1141   26.6727 C   0  0  0  0  0  0
   32.5515    1.2320   26.3972 C   0  0  0  0  0  0
   33.8240    1.7228   26.1538 C   0  0  0  0  0  0
   34.9273    0.8923   26.1431 C   0  0  0  0  0  0
   36.1691    1.4786   25.8921 O   0  0  0  0  0  0
   34.7901   -0.4423   26.4637 C   0  0  0  0  0  0
   33.5122   -0.9223   26.7230 C   0  0  0  0  0  0
   28.9287   -1.6642   26.9366 C   0  0  0  0  0  0
   30.1631   -1.3460   26.2361 C   0  0  0  0  0  0
   30.4188   -1.7827   24.9502 C   0  0  0  0  0  0
   29.5467   -1.6543   24.0817 O   0  0  0  0  0  0
   31.6853   -2.4134   24.5624 C   0  0  0  0  0  0
   32.4566   -1.8787   23.5501 C   0  0  0  0  0  0
   33.6463   -2.4561   23.1507 C   0  0  0  0  0  0
   34.0620   -3.6319   23.7731 C   0  0  0  0  0  0
   33.3011   -4.1723   24.7943 C   0  0  0  0  0  0
   32.1260   -3.5576   25.1931 C   0  0  0  0  0  0
   35.1794   -4.3786   23.5425 O   0  0  0  0  0  0
   35.5363   -4.5837   22.1840 C   0  0  0  0  0  0
   36.8396   -5.3319   22.0924 C   0  0  0  0  0  0
   37.9930   -5.0611   21.2559 N   0  0  0  0  0  0
   37.5407   -4.3751   20.0288 C   0  0  0  0  0  0
   38.6932   -3.8965   19.1230 C   0  0  0  0  0  0
   39.4577   -5.1536   18.6778 C   0  0  0  0  0  0
   40.0544   -5.7181   20.0037 C   0  0  0  0  0  0
   38.8684   -6.1839   20.8663 C   0  0  0  0  0  0
   24.9278   -2.8426   28.9592 H   0  0  0  0  0  0
   36.4375    1.6483   25.0105 H   0  0  0  0  0  0
  1  2  2  0  0  0
  1 16  1  0  0  0
  2  3  1  0  0  0
  3  4  1  0  0  0
  3  5  2  0  0  0
  4 35  1  0  0  0
  5  6  1  0  0  0
  6  7  1  0  0  0
  6 16  2  0  0  0
  7  8  1  0  0  0
  8  9  1  0  0  0
  8 17  2  0  0  0
  9 10  2  0  0  0
  9 15  1  0  0  0
 10 11  1  0  0  0
 11 12  2  0  0  0
 12 13  1  0  0  0
 12 14  1  0  0  0
 13 36  1  0  0  0
 14 15  2  0  0  0
 16 17  1  0  0  0
 17 18  1  0  0  0
 18 19  2  0  0  0
 18 20  1  0  0  0
 20 21  2  0  0  0
 20 25  1  0  0  0
 21 22  1  0  0  0
 22 23  2  0  0  0
 23 24  1  0  0  0
 23 26  1  0  0  0
 24 25  2  0  0  0
 26 27  1  0  0  0
 27 28  1  0  0  0
 28 29  1  0  0  0
 29 30  1  0  0  0
 29 34  1  0  0  0
 30 31  1  0  0  0
 31 32  1  0  0  0
 32 33  1  0  0  0
 33 34  1  0  0  0
M  END
>  <CHROM.0>
-120.21672069,-60.56480275,47.05218717

>  <CHROM.1>
3.61365616,-80.66368177,-82.33816304,-132.29988253,-122.37848983,-42.41025196
175.70694854,-134.02633977,-27.97023967,32.92111551,-2.26568582,24.90501910
2.54587409,0.38780525,0.60892452

>  <FORMUL>
      RAL    C28 H27 N1 O4 S1

>  <HET>
 RAL  A 600      34

>  <HETNAM>
     RAL RALOXIFENE

>  <Name>
RAL.pdb

>  <RI>
0

>  <Rbt.Current_Directory>
/home/malgorzata/Desktop/rDOCK_IFD/Wyniki/6_estrogen_receptor

>  <Rbt.Executable>
rbdock ($Id: //depot/dev/client3/rdock/2013.1/src/exe/rbdock.cxx#4 $)

>  <Rbt.Library>
libRbt.so (2013.1, Build901 2013/11/27)

>  <Rbt.Parameter_File>
/home/malgorzata/Desktop/rDock_2013.1_src/data/scripts/soft_docking.prm

>  <Rbt.Receptor>
cavity.prm

>  <SCORE>
-30.9735

>  <SCORE.INTER>
-32.9592

>  <SCORE.INTER.CONST>
1

>  <SCORE.INTER.POLAR>
-1.61248

>  <SCORE.INTER.REPUL>
0.0834884

>  <SCORE.INTER.ROT>
7

>  <SCORE.INTER.VDW>
-40.2942

>  <SCORE.INTER.norm>
-0.969389

>  <SCORE.INTRA>
2.99626

>  <SCORE.INTRA.DIHEDRAL>
22.1684

>  <SCORE.INTRA.DIHEDRAL.0>
18.358

>  <SCORE.INTRA.POLAR>
0

>  <SCORE.INTRA.POLAR.0>
0

>  <SCORE.INTRA.REPUL>
0

>  <SCORE.INTRA.REPUL.0>
0

>  <SCORE.INTRA.VDW>
-1.43741

>  <SCORE.INTRA.VDW.0>
-1.94569

>  <SCORE.INTRA.norm>
0.0881254

>  <SCORE.RESTR>
0

>  <SCORE.RESTR.CAVITY>
0

>  <SCORE.RESTR.norm>
0

>  <SCORE.SYSTEM>
-1.01051

>  <SCORE.SYSTEM.CONST>
0

>  <SCORE.SYSTEM.DIHEDRAL>
0.805907

>  <SCORE.SYSTEM.VDW>
-1.41346

>  <SCORE.SYSTEM.norm>
-0.0297208

>  <SCORE.heavy>
34

>  <SCORE.norm>
-0.910985

$$$$
RAL.pdb
  rDOCK(R)          3D
libRbt.so/2013.1/901 2013/11/27
 36 40  0  0  0  0  0  0  0  0999 V2000
   27.3368   -2.1546   27.1446 C   0  0  0  0  0  0
   26.0725   -1.6393   27.2710 C   0  0  0  0  0  0
   25.8382   -0.3029   27.4384 C   0  0  0  0  0  0
   24.5252    0.0882   27.5225 O   0  0  0  0  0  0
   26.9206    0.5840   27.4653 C   0  0  0  0  0  0
   28.1827    0.0678   27.3039 C   0  0  0  0  0  0
   29.6452    0.8366   27.3378 S   0  0  0  0  0  0
   30.6270   -0.5086   27.0622 C   0  0  0  0  0  0
   32.1167   -0.4594   27.0690 C   0  0  0  0  0  0
   32.7249   -1.1558   28.0954 C   0  0  0  0  0  0
   34.1085   -1.2252   28.1130 C   0  0  0  0  0  0
   34.8748   -0.5854   27.1587 C   0  0  0  0  0  0
   36.2612   -0.7157   27.2565 O   0  0  0  0  0  0
   34.2651    0.0703   26.1094 C   0  0  0  0  0  0
   32.8766    0.1204   26.0908 C   0  0  0  0  0  0
   28.3986   -1.3312   27.1480 C   0  0  0  0  0  0
   29.8113   -1.6595   27.0372 C   0  0  0  0  0  0
   30.2622   -2.9599   26.9138 C   0  0  0  0  0  0
   29.8935   -3.8098   27.7341 O   0  0  0  0  0  0
   31.1809   -3.3848   25.8519 C   0  0  0  0  0  0
   32.4169   -3.9156   26.1615 C   0  0  0  0  0  0
   33.3111   -4.3115   25.1858 C   0  0  0  0  0  0
   32.9609   -4.1404   23.8477 C   0  0  0  0  0  0
   31.7215   -3.6169   23.5254 C   0  0  0  0  0  0
   30.8335   -3.2534   24.5240 C   0  0  0  0  0  0
   33.6755   -4.4420   22.7261 O   0  0  0  0  0  0
   35.0852   -4.5185   22.8734 C   0  0  0  0  0  0
   35.7664   -4.1825   21.5735 C   0  0  0  0  0  0
   35.5928   -3.0204   20.7233 N   0  0  0  0  0  0
   36.5547   -3.1005   19.6055 C   0  0  0  0  0  0
   36.3684   -1.9972   18.5444 C   0  0  0  0  0  0
   36.6152   -0.6555   19.2529 C   0  0  0  0  0  0
   35.4559   -0.5620   20.2921 C   0  0  0  0  0  0
   35.6902   -1.6768   21.3264 C   0  0  0  0  0  0
   24.3039    0.9014   27.9319 H   0  0  0  0  0  0
   36.6379   -1.1925   27.9698 H   0  0  0  0  0  0
  1  2  2  0  0  0
  1 16  1  0  0  0
  2  3  1  0  0  0
  3  4  1  0  0  0
  3  5  2  0  0  0
  4 35  1  0  0  0
  5  6  1  0  0  0
  6  7  1  0  0  0
  6 16  2  0  0  0
  7  8  1  0  0  0
  8  9  1  0  0  0
  8 17  2  0  0  0
  9 10  2  0  0  0
  9 15  1  0  0  0
 10 11  1  0  0  0
 11 12  2  0  0  0
 12 13  1  0  0  0
 12 14  1  0  0  0
 13 36  1  0  0  0
 14 15  2  0  0  0
 16 17  1  0  0  0
 17 18  1  0  0  0
 18 19  2  0  0  0
 18 20  1  0  0  0
 20 21  2  0  0  0
 20 25  1  0  0  0
 21 22  1  0  0  0
 22 23  2  0  0  0
 23 24  1  0  0  0
 23 26  1  0  0  0
 24 25  2  0  0  0
 26 27  1  0  0  0
 27 28  1  0  0  0
 28 29  1  0  0  0
 29 30  1  0  0  0
 29 34  1  0  0  0
 30 31  1  0  0  0
 31 32  1  0  0  0
 32 33  1  0  0  0
 33 34  1  0  0  0
M  END
>  <CHROM.0>
-20.06673203,-60.56480275,-138.06007987

>  <CHROM.1>
158.07205305,113.48200416,-2.50304256,127.93256761,119.66271708,-23.23594178
-152.28020836,52.56095542,176.03531799,31.97468855,-1.77832985,25.11799410
2.45788804,0.11696237,1.14480612

>  <FORMUL>
      RAL    C28 H27 N1 O4 S1

>  <HET>
 RAL  A 600      34

>  <HETNAM>
     RAL RALOXIFENE

>  <Name>
RAL.pdb

>  <RI>
0

>  <Rbt.Current_Directory>
/home/malgorzata/Desktop/rDOCK_IFD/Wyniki/6_estrogen_receptor

>  <Rbt.Executable>
rbdock ($Id: //depot/dev/client3/rdock/2013.1/src/exe/rbdock.cxx#4 $)

>  <Rbt.Library>
libRbt.so (2013.1, Build901 2013/11/27)

>  <Rbt.Parameter_File>
/home/malgorzata/Desktop/rDock_2013.1_src/data/scripts/soft_docking.prm

>  <Rbt.Receptor>
cavity.prm

>  <SCORE>
-29.631

>  <SCORE.INTER>
-29.6475

>  <SCORE.INTER.CONST>
1

>  <SCORE.INTER.POLAR>
-1.38206

>  <SCORE.INTER.REPUL>
0.137479

>  <SCORE.INTER.ROT>
7

>  <SCORE.INTER.VDW>
-38.0359

>  <SCORE.INTER.norm>
-0.871984

>  <SCORE.INTRA>
0.217357

>  <SCORE.INTRA.DIHEDRAL>
13.4397

>  <SCORE.INTRA.DIHEDRAL.0>
18.358

>  <SCORE.INTRA.POLAR>
0

>  <SCORE.INTRA.POLAR.0>
0

>  <SCORE.INTRA.REPUL>
0

>  <SCORE.INTRA.REPUL.0>
0

>  <SCORE.INTRA.VDW>
-2.47059

>  <SCORE.INTRA.VDW.0>
-1.94569

>  <SCORE.INTRA.norm>
0.00639284

>  <SCORE.RESTR>
0.224414

>  <SCORE.RESTR.CAVITY>
0.0448829

>  <SCORE.RESTR.norm>
0.00660042

>  <SCORE.SYSTEM>
-0.425278

>  <SCORE.SYSTEM.CONST>
0

>  <SCORE.SYSTEM.DIHEDRAL>
0.802426

>  <SCORE.SYSTEM.VDW>
-0.826491

>  <SCORE.SYSTEM.norm>
-0.0125082

>  <SCORE.heavy>
34

>  <SCORE.norm>
-0.871499

$$$$
RAL.pdb
  rDOCK(R)          3D
libRbt.so/2013.1/901 2013/11/27
 36 40  0  0  0  0  0  0  0  0999 V2000
   32.7272   -2.0072   27.9253 C   0  0  0  0  0  0
   33.9082   -1.6319   28.5122 C   0  0  0  0  0  0
   33.9835   -0.6191   29.4273 C   0  0  0  0  0  0
   35.2207   -0.3613   29.9630 O   0  0  0  0  0  0
   32.8151    0.0553   29.8000 C   0  0  0  0  0  0
   31.6296   -0.3464   29.2357 C   0  0  0  0  0  0
   30.1098    0.2732   29.4296 S   0  0  0  0  0  0
   29.2888   -0.7865   28.4036 C   0  0  0  0  0  0
   27.8368   -0.6711   28.0870 C   0  0  0  0  0  0
   27.0507   -0.1617   29.1022 C   0  0  0  0  0  0
   25.7062    0.0544   28.8470 C   0  0  0  0  0  0
   25.1435   -0.2647   27.6269 C   0  0  0  0  0  0
   23.7814   -0.0075   27.4618 O   0  0  0  0  0  0
   25.9387   -0.7298   26.6002 C   0  0  0  0  0  0
   27.2893   -0.9275   26.8602 C   0  0  0  0  0  0
   31.5830   -1.3940   28.2721 C   0  0  0  0  0  0
   30.2352   -1.6238   27.7760 C   0  0  0  0  0  0
   29.9531   -2.5688   26.8080 C   0  0  0  0  0  0
   28.8853   -3.1918   26.8618 O   0  0  0  0  0  0
   30.8769   -2.8846   25.7129 C   0  0  0  0  0  0
   31.3659   -4.1654   25.5522 C   0  0  0  0  0  0
   32.2484   -4.4926   24.5410 C   0  0  0  0  0  0
   32.6780   -3.4876   23.6761 C   0  0  0  0  0  0
   32.1883   -2.2021   23.8228 C   0  0  0  0  0  0
   31.2834   -1.9077   24.8288 C   0  0  0  0  0  0
   33.5433   -3.5688   22.6253 O   0  0  0  0  0  0
   32.9967   -3.3452   21.3345 C   0  0  0  0  0  0
   33.8289   -2.3428   20.5801 C   0  0  0  0  0  0
   35.2717   -2.2577   20.4589 N   0  0  0  0  0  0
   35.6028   -1.3544   19.3384 C   0  0  0  0  0  0
   37.1103   -1.0605   19.2011 C   0  0  0  0  0  0
   37.7988   -2.4042   18.9120 C   0  0  0  0  0  0
   37.5592   -3.2346   20.2104 C   0  0  0  0  0  0
   36.0467   -3.5035   20.2977 C   0  0  0  0  0  0
   35.9937   -0.6361   29.5103 H   0  0  0  0  0  0
   23.4004    0.7606   27.8398 H   0  0  0  0  0  0
  1  2  2  0  0  0
  1 16  1  0  0  0
  2  3  1  0  0  0
  3  4  1  0  0  0
  3  5  2  0  0  0
  4 35  1  0  0  0
  5  6  1  0  0  0
  6  7  1  0  0  0
  6 16  2  0  0  0
  7  8  1  0  0  0
  8  9  1  0  0  0
  8 17  2  0  0  0
  9 10  2  0  0  0
  9 15  1  0  0  0
 10 11  1  0  0  0
 11 12  2  0  0  0
 12 13  1  0  0  0
 12 14  1  0  0  0
 13 36  1  0  0  0
 14 15  2  0  0  0
 16 17  1  0  0  0
 17 18  1  0  0  0
 18 19  2  0  0  0
 18 20  1  0  0  0
 20 21  2  0  0  0
 20 25  1  0  0  0
 21 22  1  0  0  0
 22 23  2  0  0  0
 23 24  1  0  0  0
 23 26  1  0  0  0
 24 25  2  0  0  0
 26 27  1  0  0  0
 27 28  1  0  0  0
 28 29  1  0  0  0
 29 30  1  0  0  0
 29 34  1  0  0  0
 30 31  1  0  0  0
 31 32  1  0  0  0
 32 33  1  0  0  0
 33 34  1  0  0  0
M  END
>  <CHROM.0>
-28.10276323,-60.56480275,-22.25198416

>  <CHROM.1>
21.37588205,-32.05974324,37.53646664,-34.66158615,120.55797675,113.53612061
130.24589056,44.69177443,164.57299648,31.57375779,-1.66911949,25.59709251
-2.33575197,0.02182964,-1.80658099

>  <FORMUL>
      RAL    C28 H27 N1 O4 S1

>  <HET>
 RAL  A 600      34

>  <HETNAM>
     RAL RALOXIFENE

>  <Name>
RAL.pdb

>  <RI>
0

>  <Rbt.Current_Directory>
/home/malgorzata/Desktop/rDOCK_IFD/Wyniki/6_estrogen_receptor

>  <Rbt.Executable>
rbdock ($Id: //depot/dev/client3/rdock/2013.1/src/exe/rbdock.cxx#4 $)

>  <Rbt.Library>
libRbt.so (2013.1, Build901 2013/11/27)

>  <Rbt.Parameter_File>
/home/malgorzata/Desktop/rDock_2013.1_src/data/scripts/soft_docking.prm

>  <Rbt.Receptor>
cavity.prm

>  <SCORE>
-34.2194

>  <SCORE.INTER>
-36.2138

>  <SCORE.INTER.CONST>
1

>  <SCORE.INTER.POLAR>
-2.27983

>  <SCORE.INTER.REPUL>
0.0379322

>  <SCORE.INTER.ROT>
7

>  <SCORE.INTER.VDW>
-41.052

>  <SCORE.INTER.norm>
-1.06511

>  <SCORE.INTRA>
2.6052

>  <SCORE.INTRA.DIHEDRAL>
12.4332

>  <SCORE.INTRA.DIHEDRAL.0>
18.358

>  <SCORE.INTRA.POLAR>
0

>  <SCORE.INTRA.POLAR.0>
0

>  <SCORE.INTRA.REPUL>
0

>  <SCORE.INTRA.REPUL.0>
0

>  <SCORE.INTRA.VDW>
0.118565

>  <SCORE.INTRA.VDW.0>
-1.94569

>  <SCORE.INTRA.norm>
0.0766235

>  <SCORE.RESTR>
0

>  <SCORE.RESTR.CAVITY>
0

>  <SCORE.RESTR.norm>
0

>  <SCORE.SYSTEM>
-0.61078

>  <SCORE.SYSTEM.CONST>
0

>  <SCORE.SYSTEM.DIHEDRAL>
0.802165

>  <SCORE.SYSTEM.VDW>
-1.01186

>  <SCORE.SYSTEM.norm>
-0.0179641

>  <SCORE.heavy>
34

>  <SCORE.norm>
-1.00645

$$$$
RAL.pdb
  rDOCK(R)          3D
libRbt.so/2013.1/901 2013/11/27
 36 40  0  0  0  0  0  0  0  0999 V2000
   33.1443   -1.6295   28.2244 C   0  0  0  0  0  0
   34.2959   -1.1262   28.7725 C   0  0  0  0  0  0
   34.2958   -0.0635   29.6324 C   0  0  0  0  0  0
   35.5127    0.3248   30.1346 O   0  0  0  0  0  0
   33.0790    0.5297   29.9878 C   0  0  0  0  0  0
   31.9252    0.0008   29.4637 C   0  0  0  0  0  0
   30.3609    0.5006   29.6488 S   0  0  0  0  0  0
   29.6208   -0.6770   28.6922 C   0  0  0  0  0  0
   28.1608   -0.7003   28.3927 C   0  0  0  0  0  0
   27.7204    0.2834   27.5287 C   0  0  0  0  0  0
   26.3912    0.2684   27.1382 C   0  0  0  0  0  0
   25.5077   -0.6753   27.6239 C   0  0  0  0  0  0
   24.1890   -0.6129   27.1700 O   0  0  0  0  0  0
   25.9593   -1.6837   28.4498 C   0  0  0  0  0  0
   27.2977   -1.6703   28.8227 C   0  0  0  0  0  0
   31.9564   -1.0966   28.5566 C   0  0  0  0  0  0
   30.6273   -1.4643   28.0942 C   0  0  0  0  0  0
   30.4151   -2.4796   27.1811 C   0  0  0  0  0  0
   29.5092   -3.2979   27.3840 O   0  0  0  0  0  0
   31.2320   -2.6461   25.9740 C   0  0  0  0  0  0
   30.7972   -2.1596   24.7576 C   0  0  0  0  0  0
   31.5350   -2.3127   23.5997 C   0  0  0  0  0  0
   32.7421   -3.0066   23.6619 C   0  0  0  0  0  0
   33.1917   -3.4915   24.8771 C   0  0  0  0  0  0
   32.4447   -3.3002   26.0273 C   0  0  0  0  0  0
   33.6245   -3.2891   22.6614 O   0  0  0  0  0  0
   33.5398   -2.4848   21.4947 C   0  0  0  0  0  0
   33.8791   -3.2969   20.2733 C   0  0  0  0  0  0
   33.0038   -4.0831   19.4252 N   0  0  0  0  0  0
   33.0949   -3.5714   18.0428 C   0  0  0  0  0  0
   32.3241   -4.4216   17.0129 C   0  0  0  0  0  0
   30.8412   -4.3663   17.4144 C   0  0  0  0  0  0
   30.8010   -5.0847   18.7982 C   0  0  0  0  0  0
   31.5773   -4.1971   19.7866 C   0  0  0  0  0  0
   36.2340   -0.2733   30.1299 H   0  0  0  0  0  0
   23.9530   -1.0185   26.3589 H   0  0  0  0  0  0
  1  2  2  0  0  0
  1 16  1  0  0  0
  2  3  1  0  0  0
  3  4  1  0  0  0
  3  5  2  0  0  0
  4 35  1  0  0  0
  5  6  1  0  0  0
  6  7  1  0  0  0
  6 16  2  0  0  0
  7  8  1  0  0  0
  8  9  1  0  0  0
  8 17  2  0  0  0
  9 10  2  0  0  0
  9 15  1  0  0  0
 10 11  1  0  0  0
 11 12  2  0  0  0
 12 13  1  0  0  0
 12 14  1  0  0  0
 13 36  1  0  0  0
 14 15  2  0  0  0
 16 17  1  0  0  0
 17 18  1  0  0  0
 18 19  2  0  0  0
 18 20  1  0  0  0
 20 21  2  0  0  0
 20 25  1  0  0  0
 21 22  1  0  0  0
 22 23  2  0  0  0
 23 24  1  0  0  0
 23 26  1  0  0  0
 24 25  2  0  0  0
 26 27  1  0  0  0
 27 28  1  0  0  0
 28 29  1  0  0  0
 29 30  1  0  0  0
 29 34  1  0  0  0
 30 31  1  0  0  0
 31 32  1  0  0  0
 32 33  1  0  0  0
 33 34  1  0  0  0
M  END
>  <CHROM.0>
91.80053844,-60.56480275,-142.42230624

>  <CHROM.1>
-20.47974411,71.47525027,84.23631467,-44.40092199,-97.59827482,19.94621278
-146.26005793,89.22029232,121.44144723,31.01046774,-1.90683133,25.49177612
-1.81792080,0.02630234,-1.91720542

>  <FORMUL>
      RAL    C28 H27 N1 O4 S1

>  <HET>
 RAL  A 600      34

>  <HETNAM>
     RAL RALOXIFENE

>  <Name>
RAL.pdb

>  <RI>
0

>  <Rbt.Current_Directory>
/home/malgorzata/Desktop/rDOCK_IFD/Wyniki/6_estrogen_receptor

>  <Rbt.Executable>
rbdock ($Id: //depot/dev/client3/rdock/2013.1/src/exe/rbdock.cxx#4 $)

>  <Rbt.Library>
libRbt.so (2013.1, Build901 2013/11/27)

>  <Rbt.Parameter_File>
/home/malgorzata/Desktop/rDock_2013.1_src/data/scripts/soft_docking.prm

>  <Rbt.Receptor>
cavity.prm

>  <SCORE>
-34.2706

>  <SCORE.INTER>
-38.8588

>  <SCORE.INTER.CONST>
1

>  <SCORE.INTER.POLAR>
-2.60368

>  <SCORE.INTER.REPUL>
0.542509

>  <SCORE.INTER.ROT>
7

>  <SCORE.INTER.VDW>
-45.1188

>  <SCORE.INTER.norm>
-1.14291

>  <SCORE.INTRA>
5.03752

>  <SCORE.INTRA.DIHEDRAL>
26.8703

>  <SCORE.INTRA.DIHEDRAL.0>
18.358

>  <SCORE.INTRA.POLAR>
0

>  <SCORE.INTRA.POLAR.0>
0

>  <SCORE.INTRA.REPUL>
0

>  <SCORE.INTRA.REPUL.0>
0

>  <SCORE.INTRA.VDW>
-0.336544

>  <SCORE.INTRA.VDW.0>
-1.94569

>  <SCORE.INTRA.norm>
0.148162

>  <SCORE.RESTR>
0

>  <SCORE.RESTR.CAVITY>
0

>  <SCORE.RESTR.norm>
0

>  <SCORE.SYSTEM>
-0.449372

>  <SCORE.SYSTEM.CONST>
0

>  <SCORE.SYSTEM.DIHEDRAL>
0.802157

>  <SCORE.SYSTEM.VDW>
-0.85045

>  <SCORE.SYSTEM.norm>
-0.0132168

>  <SCORE.heavy>
34

>  <SCORE.norm>
-1.00796

$$$$
RAL.pdb
  rDOCK(R)          3D
libRbt.so/2013.1/901 2013/11/27
 36 40  0  0  0  0  0  0  0  0999 V2000
   27.0907   -2.4822   26.2875 C   0  0  0  0  0  0
   25.8200   -1.9721   26.3578 C   0  0  0  0  0  0
   25.5718   -0.6546   26.6249 C   0  0  0  0  0  0
   24.2560   -0.2642   26.6381 O   0  0  0  0  0  0
   26.6477    0.2194   26.8179 C   0  0  0  0  0  0
   27.9192   -0.2883   26.7126 C   0  0  0  0  0  0
   29.3735    0.4651   26.9325 S   0  0  0  0  0  0
   30.3755   -0.8564   26.6171 C   0  0  0  0  0  0
   31.8598   -0.8175   26.7478 C   0  0  0  0  0  0
   32.5120   -0.0206   25.8271 C   0  0  0  0  0  0
   33.8842    0.1309   25.9441 C   0  0  0  0  0  0
   34.6008   -0.5242   26.9261 C   0  0  0  0  0  0
   35.9791   -0.3066   26.9675 O   0  0  0  0  0  0
   33.9424   -1.2822   27.8720 C   0  0  0  0  0  0
   32.5640   -1.4148   27.7567 C   0  0  0  0  0  0
   28.1481   -1.6691   26.4498 C   0  0  0  0  0  0
   29.5654   -1.9952   26.4238 C   0  0  0  0  0  0
   30.0259   -3.2822   26.2208 C   0  0  0  0  0  0
   29.3578   -4.2376   26.6358 O   0  0  0  0  0  0
   31.2927   -3.5749   25.5414 C   0  0  0  0  0  0
   32.4089   -3.9465   26.2634 C   0  0  0  0  0  0
   33.6203   -4.2145   25.6559 C   0  0  0  0  0  0
   33.7209   -4.0754   24.2728 C   0  0  0  0  0  0
   32.6066   -3.7113   23.5381 C   0  0  0  0  0  0
   31.3974   -3.4750   24.1701 C   0  0  0  0  0  0
   34.8018   -4.2713   23.4649 O   0  0  0  0  0  0
   35.9211   -4.9205   24.0486 C   0  0  0  0  0  0
   37.0780   -4.9366   23.0855 C   0  0  0  0  0  0
   37.0676   -5.1126   21.6459 N   0  0  0  0  0  0
   36.3293   -6.3502   21.3229 C   0  0  0  0  0  0
   36.1167   -6.5712   19.8117 C   0  0  0  0  0  0
   37.5131   -6.7054   19.1831 C   0  0  0  0  0  0
   38.1600   -5.3037   19.4056 C   0  0  0  0  0  0
   38.3541   -5.1354   20.9227 C   0  0  0  0  0  0
   23.8308   -0.0776   27.4519 H   0  0  0  0  0  0
   36.5534   -0.8413   26.4553 H   0  0  0  0  0  0
  1  2  2  0  0  0
  1 16  1  0  0  0
  2  3  1  0  0  0
  3  4  1  0  0  0
  3  5  2  0  0  0
  4 35  1  0  0  0
  5  6  1  0  0  0
  6  7  1  0  0  0
  6 16  2  0  0  0
  7  8  1  0  0  0
  8  9  1  0  0  0
  8 17  2  0  0  0
  9 10  2  0  0  0
  9 15  1  0  0  0
 10 11  1  0  0  0
 11 12  2  0  0  0
 12 13  1  0  0  0
 12 14  1  0  0  0
 13 36  1  0  0  0
 14 15  2  0  0  0
 16 17  1  0  0  0
 17 18  1  0  0  0
 18 19  2  0  0  0
 18 20  1  0  0  0
 20 21  2  0  0  0
 20 25  1  0  0  0
 21 22  1  0  0  0
 22 23  2  0  0  0
 23 24  1  0  0  0
 23 26  1  0  0  0
 24 25  2  0  0  0
 26 27  1  0  0  0
 27 28  1  0  0  0
 28 29  1  0  0  0
 29 30  1  0  0  0
 29 34  1  0  0  0
 30 31  1  0  0  0
 31 32  1  0  0  0
 32 33  1  0  0  0
 33 34  1  0  0  0
M  END
>  <CHROM.0>
-21.60016937,-60.56480275,30.15058457

>  <CHROM.1>
106.45684258,-67.88510394,-87.79089405,148.13148488,103.37739115,12.00971195
-174.14045965,-37.42660980,-53.33740142,32.20277797,-2.67017902,24.99277516
2.49930801,0.05360991,0.79471217

>  <FORMUL>
      RAL    C28 H27 N1 O4 S1

>  <HET>
 RAL  A 600      34

>  <HETNAM>
     RAL RALOXIFENE

>  <Name>
RAL.pdb

>  <RI>
0

>  <Rbt.Current_Directory>
/home/malgorzata/Desktop/rDOCK_IFD/Wyniki/6_estrogen_receptor

>  <Rbt.Executable>
rbdock ($Id: //depot/dev/client3/rdock/2013.1/src/exe/rbdock.cxx#4 $)

>  <Rbt.Library>
libRbt.so (2013.1, Build901 2013/11/27)

>  <Rbt.Parameter_File>
/home/malgorzata/Desktop/rDock_2013.1_src/data/scripts/soft_docking.prm

>  <Rbt.Receptor>
cavity.prm

>  <SCORE>
-27.14

>  <SCORE.INTER>
-28.972

>  <SCORE.INTER.CONST>
1

>  <SCORE.INTER.POLAR>
-1.11485

>  <SCORE.INTER.REPUL>
0.57146

>  <SCORE.INTER.ROT>
7

>  <SCORE.INTER.VDW>
-40.4388

>  <SCORE.INTER.norm>
-0.852117

>  <SCORE.INTRA>
1.92406

>  <SCORE.INTRA.DIHEDRAL>
18.7302

>  <SCORE.INTRA.DIHEDRAL.0>
18.358

>  <SCORE.INTRA.POLAR>
0

>  <SCORE.INTRA.POLAR.0>
0

>  <SCORE.INTRA.REPUL>
0

>  <SCORE.INTRA.REPUL.0>
0

>  <SCORE.INTRA.VDW>
-1.82197

>  <SCORE.INTRA.VDW.0>
-1.94569

>  <SCORE.INTRA.norm>
0.0565899

>  <SCORE.RESTR>
0.618194

>  <SCORE.RESTR.CAVITY>
0.123639

>  <SCORE.RESTR.norm>
0.0181822

>  <SCORE.SYSTEM>
-0.710309

>  <SCORE.SYSTEM.CONST>
0

>  <SCORE.SYSTEM.DIHEDRAL>
0.806927

>  <SCORE.SYSTEM.VDW>
-1.11377

>  <SCORE.SYSTEM.norm>
-0.0208915

>  <SCORE.heavy>
34

>  <SCORE.norm>
-0.798236

$$$$
RAL.pdb
  rDOCK(R)          3D
libRbt.so/2013.1/901 2013/11/27
 36 40  0  0  0  0  0  0  0  0999 V2000
   33.5758   -1.0929   27.3080 C   0  0  0  0  0  0
   34.6936   -0.5559   27.8928 C   0  0  0  0  0  0
   34.6245    0.4005   28.8671 C   0  0  0  0  0  0
   35.8160    0.8344   29.3924 O   0  0  0  0  0  0
   33.3708    0.8429   29.3046 C   0  0  0  0  0  0
   32.2536    0.2778   28.7408 C   0  0  0  0  0  0
   30.6576    0.6166   29.0036 S   0  0  0  0  0  0
   29.9967   -0.5069   27.9309 C   0  0  0  0  0  0
   28.5372   -0.6230   27.6517 C   0  0  0  0  0  0
   27.7092   -0.0341   28.5875 C   0  0  0  0  0  0
   26.3448   -0.0282   28.3468 C   0  0  0  0  0  0
   25.8080   -0.6277   27.2245 C   0  0  0  0  0  0
   24.4224   -0.5673   27.0657 O   0  0  0  0  0  0
   26.6394   -1.1743   26.2691 C   0  0  0  0  0  0
   28.0076   -1.1607   26.5110 C   0  0  0  0  0  0
   32.3555   -0.7051   27.7153 C   0  0  0  0  0  0
   31.0514   -1.1327   27.2334 C   0  0  0  0  0  0
   30.9039   -2.0547   26.2147 C   0  0  0  0  0  0
   30.2119   -3.0628   26.4049 O   0  0  0  0  0  0
   31.5483   -1.9023   24.9057 C   0  0  0  0  0  0
   31.8443   -3.0079   24.1341 C   0  0  0  0  0  0
   32.4640   -2.9002   22.9042 C   0  0  0  0  0  0
   32.8260   -1.6348   22.4455 C   0  0  0  0  0  0
   32.5271   -0.5188   23.2067 C   0  0  0  0  0  0
   31.8808   -0.6538   24.4240 C   0  0  0  0  0  0
   33.4495   -1.2867   21.2838 O   0  0  0  0  0  0
   33.1950   -2.1098   20.1557 C   0  0  0  0  0  0
   34.4795   -2.4234   19.4360 C   0  0  0  0  0  0
   34.7160   -2.5834   18.0140 N   0  0  0  0  0  0
   35.1062   -3.9833   17.7510 C   0  0  0  0  0  0
   35.2392   -4.3208   16.2523 C   0  0  0  0  0  0
   36.3622   -3.4304   15.6960 C   0  0  0  0  0  0
   35.7999   -1.9831   15.8430 C   0  0  0  0  0  0
   35.6908   -1.6956   17.3507 C   0  0  0  0  0  0
   36.5350    0.2395   29.4772 H   0  0  0  0  0  0
   23.9991    0.2615   26.9558 H   0  0  0  0  0  0
  1  2  2  0  0  0
  1 16  1  0  0  0
  2  3  1  0  0  0
  3  4  1  0  0  0
  3  5  2  0  0  0
  4 35  1  0  0  0
  5  6  1  0  0  0
  6  7  1  0  0  0
  6 16  2  0  0  0
  7  8  1  0  0  0
  8  9  1  0  0  0
  8 17  2  0  0  0
  9 10  2  0  0  0
  9 15  1  0  0  0
 10 11  1  0  0  0
 11 12  2  0  0  0
 12 13  1  0  0  0
 12 14  1  0  0  0
 13 36  1  0  0  0
 14 15  2  0  0  0
 16 17  1  0  0  0
 17 18  1  0  0  0
 18 19  2  0  0  0
 18 20  1  0  0  0
 20 21  2  0  0  0
 20 25  1  0  0  0
 21 22  1  0  0  0
 22 23  2  0  0  0
 23 24  1  0  0  0
 23 26  1  0  0  0
 24 25  2  0  0  0
 26 27  1  0  0  0
 27 28  1  0  0  0
 28 29  1  0  0  0
 29 30  1  0  0  0
 29 34  1  0  0  0
 30 31  1  0  0  0
 31 32  1  0  0  0
 32 33  1  0  0  0
 33 34  1  0  0  0
M  END
>  <CHROM.0>
76.65087331,-60.56480275,29.86743928

>  <CHROM.1>
-33.68278145,-17.94558000,63.54591693,-54.01271303,153.54677868,31.22048743
-134.59245814,-144.81376880,-114.50773482,31.87958587,-1.26079958,24.52466338
-2.05708191,-0.08556073,-1.85334797

>  <FORMUL>
      RAL    C28 H27 N1 O4 S1

>  <HET>
 RAL  A 600      34

>  <HETNAM>
     RAL RALOXIFENE

>  <Name>
RAL.pdb

>  <RI>
0

>  <Rbt.Current_Directory>
/home/malgorzata/Desktop/rDOCK_IFD/Wyniki/6_estrogen_receptor

>  <Rbt.Executable>
rbdock ($Id: //depot/dev/client3/rdock/2013.1/src/exe/rbdock.cxx#4 $)

>  <Rbt.Library>
libRbt.so (2013.1, Build901 2013/11/27)

>  <Rbt.Parameter_File>
/home/malgorzata/Desktop/rDock_2013.1_src/data/scripts/soft_docking.prm

>  <Rbt.Receptor>
cavity.prm

>  <SCORE>
-28.5691

>  <SCORE.INTER>
-29.834

>  <SCORE.INTER.CONST>
1

>  <SCORE.INTER.POLAR>
-2.16525

>  <SCORE.INTER.REPUL>
0.491992

>  <SCORE.INTER.ROT>
7

>  <SCORE.INTER.VDW>
-37.3321

>  <SCORE.INTER.norm>
-0.877471

>  <SCORE.INTRA>
1.98129

>  <SCORE.INTRA.DIHEDRAL>
11.5092

>  <SCORE.INTRA.DIHEDRAL.0>
18.358

>  <SCORE.INTRA.POLAR>
0

>  <SCORE.INTRA.POLAR.0>
0

>  <SCORE.INTRA.REPUL>
0

>  <SCORE.INTRA.REPUL.0>
0

>  <SCORE.INTRA.VDW>
-0.320554

>  <SCORE.INTRA.VDW.0>
-1.94569

>  <SCORE.INTRA.norm>
0.0582731

>  <SCORE.RESTR>
0

>  <SCORE.RESTR.CAVITY>
0

>  <SCORE.RESTR.norm>
0

>  <SCORE.SYSTEM>
-0.716372

>  <SCORE.SYSTEM.CONST>
0

>  <SCORE.SYSTEM.DIHEDRAL>
0.806914

>  <SCORE.SYSTEM.VDW>
-1.11983

>  <SCORE.SYSTEM.norm>
-0.0210698

>  <SCORE.heavy>
34

>  <SCORE.norm>
-0.840268

$$$$
