RAL.pdb
  rDOCK(R)          3D
libRbt.so/2013.1/901 2013/11/27
 36 40  0  0  0  0  0  0  0  0999 V2000
   26.8449   -1.6956   26.8659 C   0  0  0  0  0  0
   25.5412   -1.3088   27.0414 C   0  0  0  0  0  0
   25.1907   -0.0187   27.3269 C   0  0  0  0  0  0
   23.8491    0.2442   27.4494 O   0  0  0  0  0  0
   26.1900    0.9559   27.4286 C   0  0  0  0  0  0
   27.4912    0.5711   27.2181 C   0  0  0  0  0  0
   28.8797    1.4621   27.3152 S   0  0  0  0  0  0
   29.9743    0.2397   26.9187 C   0  0  0  0  0  0
   31.4537    0.4215   26.9251 C   0  0  0  0  0  0
   31.9311    1.4001   26.0751 C   0  0  0  0  0  0
   33.2873    1.6825   26.0937 C   0  0  0  0  0  0
   34.1582    0.9838   26.9064 C   0  0  0  0  0  0
   35.5066    1.3421   26.8595 O   0  0  0  0  0  0
   33.6735    0.0394   27.7874 C   0  0  0  0  0  0
   32.3095   -0.2253   27.7736 C   0  0  0  0  0  0
   27.8291   -0.7838   26.9386 C   0  0  0  0  0  0
   29.2641   -0.9731   26.7948 C   0  0  0  0  0  0
   29.8276   -2.2119   26.5555 C   0  0  0  0  0  0
   29.6024   -3.1421   27.3399 O   0  0  0  0  0  0
   30.7038   -2.4782   25.4094 C   0  0  0  0  0  0
   31.2488   -3.7317   25.2166 C   0  0  0  0  0  0
   32.0891   -4.0117   24.1566 C   0  0  0  0  0  0
   32.4172   -2.9848   23.2731 C   0  0  0  0  0  0
   31.8705   -1.7266   23.4518 C   0  0  0  0  0  0
   31.0092   -1.4806   24.5079 C   0  0  0  0  0  0
   33.2254   -3.0199   22.1754 O   0  0  0  0  0  0
   33.5709   -4.3054   21.6825 C   0  0  0  0  0  0
   34.8747   -4.2455   20.9322 C   0  0  0  0  0  0
   36.0355   -5.1076   21.0447 N   0  0  0  0  0  0
   37.2478   -4.3130   20.7618 C   0  0  0  0  0  0
   38.5639   -5.0812   20.9972 C   0  0  0  0  0  0
   38.5661   -6.2662   20.0180 C   0  0  0  0  0  0
   37.3710   -7.1478   20.4945 C   0  0  0  0  0  0
   36.0871   -6.3405   20.2349 C   0  0  0  0  0  0
   23.4193    0.7900   26.8207 H   0  0  0  0  0  0
   36.1106    0.9752   27.4748 H   0  0  0  0  0  0
  1  2  2  0  0  0
  1 16  1  0  0  0
  2  3  1  0  0  0
  3  4  1  0  0  0
  3  5  2  0  0  0
  4 35  1  0  0  0
  5  6  1  0  0  0
  6  7  1  0  0  0
  6 16  2  0  0  0
  7  8  1  0  0  0
  8  9  1  0  0  0
  8 17  2  0  0  0
  9 10  2  0  0  0
  9 15  1  0  0  0
 10 11  1  0  0  0
 11 12  2  0  0  0
 12 13  1  0  0  0
 12 14  1  0  0  0
 13 36  1  0  0  0
 14 15  2  0  0  0
 16 17  1  0  0  0
 17 18  1  0  0  0
 18 19  2  0  0  0
 18 20  1  0  0  0
 20 21  2  0  0  0
 20 25  1  0  0  0
 21 22  1  0  0  0
 22 23  2  0  0  0
 23 24  1  0  0  0
 23 26  1  0  0  0
 24 25  2  0  0  0
 26 27  1  0  0  0
 27 28  1  0  0  0
 28 29  1  0  0  0
 29 30  1  0  0  0
 29 34  1  0  0  0
 30 31  1  0  0  0
 31 32  1  0  0  0
 32 33  1  0  0  0
 33 34  1  0  0  0
M  END
>  <CHROM.0>
-65.32715854,-60.56480275,-105.62255056

>  <CHROM.1>
-113.00041063,-59.59683608,171.77562548,124.07194312,179.66134944,14.52964587
-154.66833784,132.00615701,-148.23594881,31.66815793,-1.78070234,24.96828804
2.42513926,0.17769079,0.67068528

>  <FORMUL>
      RAL    C28 H27 N1 O4 S1

>  <HET>
 RAL  A 600      34

>  <HETNAM>
     RAL RALOXIFENE

>  <Name>
RAL.pdb

>  <RI>
3.85496e+07

>  <Rbt.Current_Directory>
/home/malgorzata/Desktop/rDOCK_IFD/Wyniki/6_estrogen_receptor

>  <Rbt.Executable>
rbdock ($Id: //depot/dev/client3/rdock/2013.1/src/exe/rbdock.cxx#4 $)

>  <Rbt.Library>
libRbt.so (2013.1, Build901 2013/11/27)

>  <Rbt.Parameter_File>
/home/malgorzata/Desktop/rDock_2013.1_src/data/scripts/soft_docking.prm

>  <Rbt.Receptor>
cavity.prm

>  <SCORE>
-36.7069

>  <SCORE.INTER>
-37.2213

>  <SCORE.INTER.CONST>
1

>  <SCORE.INTER.POLAR>
-2.07083

>  <SCORE.INTER.REPUL>
0.00322407

>  <SCORE.INTER.ROT>
7

>  <SCORE.INTER.VDW>
-42.5965

>  <SCORE.INTER.norm>
-1.09474

>  <SCORE.INTRA>
1.2675

>  <SCORE.INTRA.DIHEDRAL>
11.6818

>  <SCORE.INTRA.DIHEDRAL.0>
18.358

>  <SCORE.INTRA.POLAR>
0

>  <SCORE.INTRA.POLAR.0>
0

>  <SCORE.INTRA.REPUL>
0

>  <SCORE.INTRA.REPUL.0>
0

>  <SCORE.INTRA.VDW>
-1.06885

>  <SCORE.INTRA.VDW.0>
-1.94569

>  <SCORE.INTRA.norm>
0.0372793

>  <SCORE.RESTR>
0

>  <SCORE.RESTR.CAVITY>
0

>  <SCORE.RESTR.norm>
0

>  <SCORE.SYSTEM>
-0.753129

>  <SCORE.SYSTEM.CONST>
0

>  <SCORE.SYSTEM.DIHEDRAL>
0.806046

>  <SCORE.SYSTEM.VDW>
-1.15615

>  <SCORE.SYSTEM.norm>
-0.0221508

>  <SCORE.heavy>
34

>  <SCORE.norm>
-1.07961

$$$$
RAL.pdb
  rDOCK(R)          3D
libRbt.so/2013.1/901 2013/11/27
 36 40  0  0  0  0  0  0  0  0999 V2000
   34.1141    0.3515   25.9042 C   0  0  0  0  0  0
   35.3791    0.6361   26.3500 C   0  0  0  0  0  0
   35.6262    1.0918   27.6149 C   0  0  0  0  0  0
   36.9399    1.3108   27.9469 O   0  0  0  0  0  0
   34.5576    1.2609   28.5028 C   0  0  0  0  0  0
   33.2963    0.9419   28.0635 C   0  0  0  0  0  0
   31.8459    1.0773   28.8440 S   0  0  0  0  0  0
   30.8569    0.4832   27.6116 C   0  0  0  0  0  0
   29.3694    0.4387   27.6952 C   0  0  0  0  0  0
   28.8338   -0.7917   28.0226 C   0  0  0  0  0  0
   27.4633   -0.8851   28.2028 C   0  0  0  0  0  0
   26.6364    0.2063   28.0231 C   0  0  0  0  0  0
   25.2691    0.0162   28.2311 O   0  0  0  0  0  0
   27.1773    1.4436   27.7416 C   0  0  0  0  0  0
   28.5545    1.5311   27.5792 C   0  0  0  0  0  0
   33.0661    0.4851   26.7345 C   0  0  0  0  0  0
   31.6550    0.2492   26.4720 C   0  0  0  0  0  0
   31.1901   -0.1649   25.2383 C   0  0  0  0  0  0
   30.1947    0.3844   24.7500 O   0  0  0  0  0  0
   31.8187   -1.2489   24.4753 C   0  0  0  0  0  0
   32.5735   -0.9734   23.3529 C   0  0  0  0  0  0
   33.1663   -1.9714   22.6039 C   0  0  0  0  0  0
   32.9687   -3.2985   22.9810 C   0  0  0  0  0  0
   32.2207   -3.5860   24.1088 C   0  0  0  0  0  0
   31.6603   -2.5643   24.8570 C   0  0  0  0  0  0
   33.4379   -4.4378   22.3969 O   0  0  0  0  0  0
   33.9815   -4.3046   21.0924 C   0  0  0  0  0  0
   33.2840   -5.2357   20.1369 C   0  0  0  0  0  0
   33.8554   -6.1126   19.1329 N   0  0  0  0  0  0
   35.0682   -5.4766   18.5800 C   0  0  0  0  0  0
   35.8550   -6.3783   17.6075 C   0  0  0  0  0  0
   34.9218   -6.6706   16.4214 C   0  0  0  0  0  0
   33.7603   -7.4973   17.0539 C   0  0  0  0  0  0
   33.0072   -6.5544   18.0086 C   0  0  0  0  0  0
   37.2033    2.1400   28.2946 H   0  0  0  0  0  0
   24.6503    0.3484   27.6108 H   0  0  0  0  0  0
  1  2  2  0  0  0
  1 16  1  0  0  0
  2  3  1  0  0  0
  3  4  1  0  0  0
  3  5  2  0  0  0
  4 35  1  0  0  0
  5  6  1  0  0  0
  6  7  1  0  0  0
  6 16  2  0  0  0
  7  8  1  0  0  0
  8  9  1  0  0  0
  8 17  2  0  0  0
  9 10  2  0  0  0
  9 15  1  0  0  0
 10 11  1  0  0  0
 11 12  2  0  0  0
 12 13  1  0  0  0
 12 14  1  0  0  0
 13 36  1  0  0  0
 14 15  2  0  0  0
 16 17  1  0  0  0
 17 18  1  0  0  0
 18 19  2  0  0  0
 18 20  1  0  0  0
 20 21  2  0  0  0
 20 25  1  0  0  0
 21 22  1  0  0  0
 22 23  2  0  0  0
 23 24  1  0  0  0
 23 26  1  0  0  0
 24 25  2  0  0  0
 26 27  1  0  0  0
 27 28  1  0  0  0
 28 29  1  0  0  0
 29 30  1  0  0  0
 29 34  1  0  0  0
 30 31  1  0  0  0
 31 32  1  0  0  0
 32 33  1  0  0  0
 33 34  1  0  0  0
M  END
>  <CHROM.0>
166.38307851,-60.56480275,67.21116885

>  <CHROM.1>
126.88351317,-100.02294930,-133.76033058,45.85632822,-106.55741736,-13.67539484
-124.39765414,-134.61320505,-33.49833105,32.17488726,-1.61536275,24.56041553
-1.90826073,-0.10752070,-2.23049279

>  <FORMUL>
      RAL    C28 H27 N1 O4 S1

>  <HET>
 RAL  A 600      34

>  <HETNAM>
     RAL RALOXIFENE

>  <Name>
RAL.pdb

>  <RI>
3.85496e+07

>  <Rbt.Current_Directory>
/home/malgorzata/Desktop/rDOCK_IFD/Wyniki/6_estrogen_receptor

>  <Rbt.Executable>
rbdock ($Id: //depot/dev/client3/rdock/2013.1/src/exe/rbdock.cxx#4 $)

>  <Rbt.Library>
libRbt.so (2013.1, Build901 2013/11/27)

>  <Rbt.Parameter_File>
/home/malgorzata/Desktop/rDock_2013.1_src/data/scripts/soft_docking.prm

>  <Rbt.Receptor>
cavity.prm

>  <SCORE>
-24.1991

>  <SCORE.INTER>
-29.2248

>  <SCORE.INTER.CONST>
1

>  <SCORE.INTER.POLAR>
-1.05495

>  <SCORE.INTER.REPUL>
0.0019039

>  <SCORE.INTER.ROT>
7

>  <SCORE.INTER.VDW>
-38.0475

>  <SCORE.INTER.norm>
-0.859553

>  <SCORE.INTRA>
5.60174

>  <SCORE.INTRA.DIHEDRAL>
30.6144

>  <SCORE.INTRA.DIHEDRAL.0>
18.358

>  <SCORE.INTRA.POLAR>
0

>  <SCORE.INTRA.POLAR.0>
0

>  <SCORE.INTRA.REPUL>
0

>  <SCORE.INTRA.REPUL.0>
0

>  <SCORE.INTRA.VDW>
-0.52113

>  <SCORE.INTRA.VDW.0>
-1.94569

>  <SCORE.INTRA.norm>
0.164757

>  <SCORE.RESTR>
0.209616

>  <SCORE.RESTR.CAVITY>
0.209616

>  <SCORE.RESTR.norm>
0.00616519

>  <SCORE.SYSTEM>
-0.785628

>  <SCORE.SYSTEM.CONST>
0

>  <SCORE.SYSTEM.DIHEDRAL>
0.803367

>  <SCORE.SYSTEM.VDW>
-1.18731

>  <SCORE.SYSTEM.norm>
-0.0231067

>  <SCORE.heavy>
34

>  <SCORE.norm>
-0.711738

$$$$
RAL.pdb
  rDOCK(R)          3D
libRbt.so/2013.1/901 2013/11/27
 36 40  0  0  0  0  0  0  0  0999 V2000
   32.9249   -0.3725   28.7372 C   0  0  0  0  0  0
   33.9483    0.4411   29.1503 C   0  0  0  0  0  0
   33.7544    1.7529   29.4824 C   0  0  0  0  0  0
   34.8562    2.4513   29.9093 O   0  0  0  0  0  0
   32.4643    2.2918   29.4194 C   0  0  0  0  0  0
   31.4367    1.4644   29.0384 C   0  0  0  0  0  0
   29.8349    1.8089   28.8220 S   0  0  0  0  0  0
   29.3198    0.2668   28.3679 C   0  0  0  0  0  0
   27.9256   -0.0472   27.9443 C   0  0  0  0  0  0
   27.4561    0.6860   26.8719 C   0  0  0  0  0  0
   26.2001    0.3857   26.3699 C   0  0  0  0  0  0
   25.4095   -0.5912   26.9423 C   0  0  0  0  0  0
   24.1604   -0.8255   26.3646 O   0  0  0  0  0  0
   25.8982   -1.3530   27.9833 C   0  0  0  0  0  0
   27.1657   -1.0559   28.4692 C   0  0  0  0  0  0
   31.6704    0.1057   28.6818 C   0  0  0  0  0  0
   30.4507   -0.5711   28.2695 C   0  0  0  0  0  0
   30.4403   -1.8864   27.8460 C   0  0  0  0  0  0
   29.9314   -2.7521   28.5690 O   0  0  0  0  0  0
   31.0242   -2.3149   26.5702 C   0  0  0  0  0  0
   31.1193   -1.4365   25.5096 C   0  0  0  0  0  0
   31.6500   -1.8122   24.2907 C   0  0  0  0  0  0
   32.0745   -3.1291   24.1227 C   0  0  0  0  0  0
   31.9913   -4.0160   25.1812 C   0  0  0  0  0  0
   31.4800   -3.6052   26.4008 C   0  0  0  0  0  0
   32.6137   -3.7252   23.0211 O   0  0  0  0  0  0
   32.3738   -3.0901   21.7745 C   0  0  0  0  0  0
   31.3807   -3.8817   20.9662 C   0  0  0  0  0  0
   30.7818   -3.5617   19.6846 N   0  0  0  0  0  0
   31.6705   -4.0469   18.6094 C   0  0  0  0  0  0
   31.0727   -3.9016   17.1955 C   0  0  0  0  0  0
   30.8604   -2.3979   16.9570 C   0  0  0  0  0  0
   29.7794   -2.0010   18.0089 C   0  0  0  0  0  0
   30.4252   -2.1587   19.3966 C   0  0  0  0  0  0
   35.6737    2.0094   30.0286 H   0  0  0  0  0  0
   23.8331   -1.7008   26.2951 H   0  0  0  0  0  0
  1  2  2  0  0  0
  1 16  1  0  0  0
  2  3  1  0  0  0
  3  4  1  0  0  0
  3  5  2  0  0  0
  4 35  1  0  0  0
  5  6  1  0  0  0
  6  7  1  0  0  0
  6 16  2  0  0  0
  7  8  1  0  0  0
  8  9  1  0  0  0
  8 17  2  0  0  0
  9 10  2  0  0  0
  9 15  1  0  0  0
 10 11  1  0  0  0
 11 12  2  0  0  0
 12 13  1  0  0  0
 12 14  1  0  0  0
 13 36  1  0  0  0
 14 15  2  0  0  0
 16 17  1  0  0  0
 17 18  1  0  0  0
 18 19  2  0  0  0
 18 20  1  0  0  0
 20 21  2  0  0  0
 20 25  1  0  0  0
 21 22  1  0  0  0
 22 23  2  0  0  0
 23 24  1  0  0  0
 23 26  1  0  0  0
 24 25  2  0  0  0
 26 27  1  0  0  0
 27 28  1  0  0  0
 28 29  1  0  0  0
 29 30  1  0  0  0
 29 34  1  0  0  0
 30 31  1  0  0  0
 31 32  1  0  0  0
 32 33  1  0  0  0
 33 34  1  0  0  0
M  END
>  <CHROM.0>
-144.45677195,-60.56480275,15.03192669

>  <CHROM.1>
-5.00637425,57.10291961,141.29568838,-70.29847374,-26.58760513,-20.45430429
-107.15002486,175.39354939,87.14485036,30.43974706,-1.17851122,25.46827159
-1.62217223,-0.00739432,-1.96014474

>  <FORMUL>
      RAL    C28 H27 N1 O4 S1

>  <HET>
 RAL  A 600      34

>  <HETNAM>
     RAL RALOXIFENE

>  <Name>
RAL.pdb

>  <RI>
3.85496e+07

>  <Rbt.Current_Directory>
/home/malgorzata/Desktop/rDOCK_IFD/Wyniki/6_estrogen_receptor

>  <Rbt.Executable>
rbdock ($Id: //depot/dev/client3/rdock/2013.1/src/exe/rbdock.cxx#4 $)

>  <Rbt.Library>
libRbt.so (2013.1, Build901 2013/11/27)

>  <Rbt.Parameter_File>
/home/malgorzata/Desktop/rDock_2013.1_src/data/scripts/soft_docking.prm

>  <Rbt.Receptor>
cavity.prm

>  <SCORE>
-35.8108

>  <SCORE.INTER>
-37.418

>  <SCORE.INTER.CONST>
1

>  <SCORE.INTER.POLAR>
-1.62427

>  <SCORE.INTER.REPUL>
0.101151

>  <SCORE.INTER.ROT>
7

>  <SCORE.INTER.VDW>
-44.8012

>  <SCORE.INTER.norm>
-1.10053

>  <SCORE.INTRA>
2.0533

>  <SCORE.INTRA.DIHEDRAL>
13.319

>  <SCORE.INTRA.DIHEDRAL.0>
18.358

>  <SCORE.INTRA.POLAR>
0

>  <SCORE.INTRA.POLAR.0>
0

>  <SCORE.INTRA.REPUL>
0

>  <SCORE.INTRA.REPUL.0>
0

>  <SCORE.INTRA.VDW>
-0.610504

>  <SCORE.INTRA.VDW.0>
-1.94569

>  <SCORE.INTRA.norm>
0.0603913

>  <SCORE.RESTR>
0.441359

>  <SCORE.RESTR.CAVITY>
0.441359

>  <SCORE.RESTR.norm>
0.0129811

>  <SCORE.SYSTEM>
-0.88746

>  <SCORE.SYSTEM.CONST>
0

>  <SCORE.SYSTEM.DIHEDRAL>
0.806216

>  <SCORE.SYSTEM.VDW>
-1.29057

>  <SCORE.SYSTEM.norm>
-0.0261018

>  <SCORE.heavy>
34

>  <SCORE.norm>
-1.05326

$$$$
RAL.pdb
  rDOCK(R)          3D
libRbt.so/2013.1/901 2013/11/27
 36 40  0  0  0  0  0  0  0  0999 V2000
   33.0717   -1.0413   27.8041 C   0  0  0  0  0  0
   34.1861   -0.4607   28.3526 C   0  0  0  0  0  0
   34.1198    0.6529   29.1427 C   0  0  0  0  0  0
   35.3051    1.1185   29.6547 O   0  0  0  0  0  0
   32.8714    1.2198   29.4237 C   0  0  0  0  0  0
   31.7550    0.6151   28.9007 C   0  0  0  0  0  0
   30.1684    1.0649   29.0075 S   0  0  0  0  0  0
   29.5026   -0.1979   28.1066 C   0  0  0  0  0  0
   28.0547   -0.2961   27.7663 C   0  0  0  0  0  0
   27.4468    0.8967   27.4262 C   0  0  0  0  0  0
   26.1242    0.8664   27.0145 C   0  0  0  0  0  0
   25.4069   -0.3132   26.9791 C   0  0  0  0  0  0
   24.0813   -0.2451   26.5467 O   0  0  0  0  0  0
   26.0286   -1.5086   27.2746 C   0  0  0  0  0  0
   27.3600   -1.4704   27.6703 C   0  0  0  0  0  0
   31.8552   -0.5349   28.0667 C   0  0  0  0  0  0
   30.5557   -0.9817   27.5897 C   0  0  0  0  0  0
   30.4100   -2.0595   26.7373 C   0  0  0  0  0  0
   29.6806   -3.0019   27.0708 O   0  0  0  0  0  0
   31.0988   -2.1494   25.4452 C   0  0  0  0  0  0
   30.8970   -1.1913   24.4721 C   0  0  0  0  0  0
   31.5183   -1.2544   23.2399 C   0  0  0  0  0  0
   32.3516   -2.3373   22.9650 C   0  0  0  0  0  0
   32.5676   -3.2992   23.9355 C   0  0  0  0  0  0
   31.9530   -3.1968   25.1723 C   0  0  0  0  0  0
   33.0538   -2.6159   21.8297 O   0  0  0  0  0  0
   34.3673   -2.0838   21.7493 C   0  0  0  0  0  0
   34.9234   -2.2694   20.3627 C   0  0  0  0  0  0
   35.7393   -1.3649   19.5755 N   0  0  0  0  0  0
   37.1483   -1.5082   19.9943 C   0  0  0  0  0  0
   38.1396   -0.7073   19.1262 C   0  0  0  0  0  0
   37.7723    0.7765   19.2892 C   0  0  0  0  0  0
   36.3482    0.8807   18.6617 C   0  0  0  0  0  0
   35.4004    0.0716   19.5643 C   0  0  0  0  0  0
   36.0937    1.0426   29.1543 H   0  0  0  0  0  0
   23.6729   -0.9983   26.1674 H   0  0  0  0  0  0
  1  2  2  0  0  0
  1 16  1  0  0  0
  2  3  1  0  0  0
  3  4  1  0  0  0
  3  5  2  0  0  0
  4 35  1  0  0  0
  5  6  1  0  0  0
  6  7  1  0  0  0
  6 16  2  0  0  0
  7  8  1  0  0  0
  8  9  1  0  0  0
  8 17  2  0  0  0
  9 10  2  0  0  0
  9 15  1  0  0  0
 10 11  1  0  0  0
 11 12  2  0  0  0
 12 13  1  0  0  0
 12 14  1  0  0  0
 13 36  1  0  0  0
 14 15  2  0  0  0
 16 17  1  0  0  0
 17 18  1  0  0  0
 18 19  2  0  0  0
 18 20  1  0  0  0
 20 21  2  0  0  0
 20 25  1  0  0  0
 21 22  1  0  0  0
 22 23  2  0  0  0
 23 24  1  0  0  0
 23 26  1  0  0  0
 24 25  2  0  0  0
 26 27  1  0  0  0
 27 28  1  0  0  0
 28 29  1  0  0  0
 29 30  1  0  0  0
 29 34  1  0  0  0
 30 31  1  0  0  0
 31 32  1  0  0  0
 32 33  1  0  0  0
 33 34  1  0  0  0
M  END
>  <CHROM.0>
-85.03743712,-60.56480275,146.64489491

>  <CHROM.1>
34.08247350,39.89812120,154.39227914,-55.69279329,-59.49311511,89.26977040
-170.32017970,141.04369140,82.16634012,31.79870189,-0.75160678,25.23257913
-2.36871593,-0.15438326,-1.81376944

>  <FORMUL>
      RAL    C28 H27 N1 O4 S1

>  <HET>
 RAL  A 600      34

>  <HETNAM>
     RAL RALOXIFENE

>  <Name>
RAL.pdb

>  <RI>
3.85496e+07

>  <Rbt.Current_Directory>
/home/malgorzata/Desktop/rDOCK_IFD/Wyniki/6_estrogen_receptor

>  <Rbt.Executable>
rbdock ($Id: //depot/dev/client3/rdock/2013.1/src/exe/rbdock.cxx#4 $)

>  <Rbt.Library>
libRbt.so (2013.1, Build901 2013/11/27)

>  <Rbt.Parameter_File>
/home/malgorzata/Desktop/rDock_2013.1_src/data/scripts/soft_docking.prm

>  <Rbt.Receptor>
cavity.prm

>  <SCORE>
-37.995

>  <SCORE.INTER>
-39.4423

>  <SCORE.INTER.CONST>
1

>  <SCORE.INTER.POLAR>
-1.47878

>  <SCORE.INTER.REPUL>
0.0818582

>  <SCORE.INTER.ROT>
7

>  <SCORE.INTER.VDW>
-47.2237

>  <SCORE.INTER.norm>
-1.16007

>  <SCORE.INTRA>
2.18351

>  <SCORE.INTRA.DIHEDRAL>
16.6293

>  <SCORE.INTRA.DIHEDRAL.0>
18.358

>  <SCORE.INTRA.POLAR>
0

>  <SCORE.INTRA.POLAR.0>
0

>  <SCORE.INTRA.REPUL>
0

>  <SCORE.INTRA.REPUL.0>
0

>  <SCORE.INTRA.VDW>
-1.14235

>  <SCORE.INTRA.VDW.0>
-1.94569

>  <SCORE.INTRA.norm>
0.064221

>  <SCORE.RESTR>
0.101884

>  <SCORE.RESTR.CAVITY>
0.101884

>  <SCORE.RESTR.norm>
0.00299659

>  <SCORE.SYSTEM>
-0.838138

>  <SCORE.SYSTEM.CONST>
0

>  <SCORE.SYSTEM.DIHEDRAL>
0.806724

>  <SCORE.SYSTEM.VDW>
-1.2415

>  <SCORE.SYSTEM.norm>
-0.0246511

>  <SCORE.heavy>
34

>  <SCORE.norm>
-1.1175

$$$$
RAL.pdb
  rDOCK(R)          3D
libRbt.so/2013.1/901 2013/11/27
 36 40  0  0  0  0  0  0  0  0999 V2000
   27.2058   -2.2585   27.4285 C   0  0  0  0  0  0
   25.9350   -1.8656   27.7613 C   0  0  0  0  0  0
   25.6880   -0.8212   28.6081 C   0  0  0  0  0  0
   24.3710   -0.5096   28.8367 O   0  0  0  0  0  0
   26.7644   -0.1076   29.1474 C   0  0  0  0  0  0
   28.0345   -0.4825   28.7845 C   0  0  0  0  0  0
   29.4909    0.1201   29.2816 S   0  0  0  0  0  0
   30.4895   -0.8888   28.3681 C   0  0  0  0  0  0
   31.9773   -0.8804   28.4584 C   0  0  0  0  0  0
   32.5009   -1.4304   29.6123 C   0  0  0  0  0  0
   33.8779   -1.5346   29.7246 C   0  0  0  0  0  0
   34.7194   -1.0676   28.7342 C   0  0  0  0  0  0
   36.0926   -1.2199   28.9348 O   0  0  0  0  0  0
   34.1941   -0.5611   27.5636 C   0  0  0  0  0  0
   32.8116   -0.4760   27.4530 C   0  0  0  0  0  0
   28.2629   -1.5856   27.9133 C   0  0  0  0  0  0
   29.6805   -1.8318   27.6996 C   0  0  0  0  0  0
   30.1418   -2.8736   26.9176 C   0  0  0  0  0  0
   29.6007   -3.9830   27.0051 O   0  0  0  0  0  0
   31.2667   -2.7307   25.9868 C   0  0  0  0  0  0
   31.1727   -1.8944   24.8926 C   0  0  0  0  0  0
   32.2075   -1.7485   23.9892 C   0  0  0  0  0  0
   33.3702   -2.4939   24.1770 C   0  0  0  0  0  0
   33.4787   -3.3291   25.2746 C   0  0  0  0  0  0
   32.4359   -3.4356   26.1796 C   0  0  0  0  0  0
   34.5040   -2.5245   23.4201 O   0  0  0  0  0  0
   34.3469   -2.8850   22.0562 C   0  0  0  0  0  0
   35.6247   -3.4731   21.5196 C   0  0  0  0  0  0
   36.1607   -3.4220   20.1729 N   0  0  0  0  0  0
   35.1091   -3.8441   19.2257 C   0  0  0  0  0  0
   35.5075   -3.6883   17.7443 C   0  0  0  0  0  0
   36.7162   -4.6092   17.5117 C   0  0  0  0  0  0
   37.8348   -3.9920   18.4063 C   0  0  0  0  0  0
   37.3922   -4.1764   19.8683 C   0  0  0  0  0  0
   23.9167    0.0639   28.2513 H   0  0  0  0  0  0
   36.5219   -0.7440   29.6183 H   0  0  0  0  0  0
  1  2  2  0  0  0
  1 16  1  0  0  0
  2  3  1  0  0  0
  3  4  1  0  0  0
  3  5  2  0  0  0
  4 35  1  0  0  0
  5  6  1  0  0  0
  6  7  1  0  0  0
  6 16  2  0  0  0
  7  8  1  0  0  0
  8  9  1  0  0  0
  8 17  2  0  0  0
  9 10  2  0  0  0
  9 15  1  0  0  0
 10 11  1  0  0  0
 11 12  2  0  0  0
 12 13  1  0  0  0
 12 14  1  0  0  0
 13 36  1  0  0  0
 14 15  2  0  0  0
 16 17  1  0  0  0
 17 18  1  0  0  0
 18 19  2  0  0  0
 18 20  1  0  0  0
 20 21  2  0  0  0
 20 25  1  0  0  0
 21 22  1  0  0  0
 22 23  2  0  0  0
 23 24  1  0  0  0
 23 26  1  0  0  0
 24 25  2  0  0  0
 26 27  1  0  0  0
 27 28  1  0  0  0
 28 29  1  0  0  0
 29 30  1  0  0  0
 29 34  1  0  0  0
 30 31  1  0  0  0
 31 32  1  0  0  0
 32 33  1  0  0  0
 33 34  1  0  0  0
M  END
>  <CHROM.0>
128.07532687,-60.56480275,54.82302906

>  <CHROM.1>
-85.78751152,72.49888818,-66.89415275,138.54939891,-64.88528820,-57.97869991
-154.48415304,-148.90582549,-50.48084770,32.00075664,-2.07219021,25.60642205
2.28124516,0.00027589,1.26943272

>  <FORMUL>
      RAL    C28 H27 N1 O4 S1

>  <HET>
 RAL  A 600      34

>  <HETNAM>
     RAL RALOXIFENE

>  <Name>
RAL.pdb

>  <RI>
3.85496e+07

>  <Rbt.Current_Directory>
/home/malgorzata/Desktop/rDOCK_IFD/Wyniki/6_estrogen_receptor

>  <Rbt.Executable>
rbdock ($Id: //depot/dev/client3/rdock/2013.1/src/exe/rbdock.cxx#4 $)

>  <Rbt.Library>
libRbt.so (2013.1, Build901 2013/11/27)

>  <Rbt.Parameter_File>
/home/malgorzata/Desktop/rDock_2013.1_src/data/scripts/soft_docking.prm

>  <Rbt.Receptor>
cavity.prm

>  <SCORE>
-28.4348

>  <SCORE.INTER>
-30.4447

>  <SCORE.INTER.CONST>
1

>  <SCORE.INTER.POLAR>
-1.88609

>  <SCORE.INTER.REPUL>
0

>  <SCORE.INTER.ROT>
7

>  <SCORE.INTER.VDW>
-36.4319

>  <SCORE.INTER.norm>
-0.895431

>  <SCORE.INTRA>
2.64578

>  <SCORE.INTRA.DIHEDRAL>
26.7034

>  <SCORE.INTRA.DIHEDRAL.0>
18.358

>  <SCORE.INTRA.POLAR>
0

>  <SCORE.INTRA.POLAR.0>
0

>  <SCORE.INTRA.REPUL>
0

>  <SCORE.INTRA.REPUL.0>
0

>  <SCORE.INTRA.VDW>
-2.6949

>  <SCORE.INTRA.VDW.0>
-1.94569

>  <SCORE.INTRA.norm>
0.0778171

>  <SCORE.RESTR>
0.0912558

>  <SCORE.RESTR.CAVITY>
0.0912558

>  <SCORE.RESTR.norm>
0.00268399

>  <SCORE.SYSTEM>
-0.727192

>  <SCORE.SYSTEM.CONST>
0

>  <SCORE.SYSTEM.DIHEDRAL>
0.804972

>  <SCORE.SYSTEM.VDW>
-1.12968

>  <SCORE.SYSTEM.norm>
-0.021388

>  <SCORE.heavy>
34

>  <SCORE.norm>
-0.836318

$$$$
RAL.pdb
  rDOCK(R)          3D
libRbt.so/2013.1/901 2013/11/27
 36 40  0  0  0  0  0  0  0  0999 V2000
   31.8911   -2.5251   25.7469 C   0  0  0  0  0  0
   32.7824   -2.8511   24.7574 C   0  0  0  0  0  0
   32.5116   -2.6547   23.4319 C   0  0  0  0  0  0
   33.4998   -2.9956   22.5424 O   0  0  0  0  0  0
   31.2892   -2.0836   23.0601 C   0  0  0  0  0  0
   30.4136   -1.7268   24.0558 C   0  0  0  0  0  0
   28.8943   -1.0869   23.9402 S   0  0  0  0  0  0
   28.5605   -0.9681   25.5907 C   0  0  0  0  0  0
   27.2485   -0.5199   26.1381 C   0  0  0  0  0  0
   26.1397   -1.1319   25.5867 C   0  0  0  0  0  0
   24.8931   -0.8270   26.1087 C   0  0  0  0  0  0
   24.7433    0.0938   27.1269 C   0  0  0  0  0  0
   23.4483    0.3326   27.5904 O   0  0  0  0  0  0
   25.8549    0.6689   27.7069 C   0  0  0  0  0  0
   27.1023    0.3444   27.1879 C   0  0  0  0  0  0
   30.7151   -1.9586   25.4282 C   0  0  0  0  0  0
   29.6314   -1.5447   26.3057 C   0  0  0  0  0  0
   29.6860   -1.7057   27.6771 C   0  0  0  0  0  0
   28.7847   -2.3303   28.2505 O   0  0  0  0  0  0
   30.7673   -1.1522   28.4996 C   0  0  0  0  0  0
   31.8999   -0.6261   27.9116 C   0  0  0  0  0  0
   32.9423   -0.1108   28.6574 C   0  0  0  0  0  0
   32.8553   -0.1525   30.0479 C   0  0  0  0  0  0
   31.7214   -0.6701   30.6481 C   0  0  0  0  0  0
   30.6794   -1.1553   29.8757 C   0  0  0  0  0  0
   33.7527    0.2795   30.9793 O   0  0  0  0  0  0
   35.0998   -0.1306   30.8006 C   0  0  0  0  0  0
   35.7630    0.7003   29.7346 C   0  0  0  0  0  0
   35.2250    1.1658   28.4707 N   0  0  0  0  0  0
   35.7525    0.3134   27.3861 C   0  0  0  0  0  0
   35.1353    0.6116   26.0048 C   0  0  0  0  0  0
   35.5085    2.0617   25.6569 C   0  0  0  0  0  0
   34.7683    2.9083   26.7376 C   0  0  0  0  0  0
   35.4222    2.5783   28.0908 C   0  0  0  0  0  0
   33.8264   -2.3584   21.9381 H   0  0  0  0  0  0
   23.0751    1.1890   27.5177 H   0  0  0  0  0  0
  1  2  2  0  0  0
  1 16  1  0  0  0
  2  3  1  0  0  0
  3  4  1  0  0  0
  3  5  2  0  0  0
  4 35  1  0  0  0
  5  6  1  0  0  0
  6  7  1  0  0  0
  6 16  2  0  0  0
  7  8  1  0  0  0
  8  9  1  0  0  0
  8 17  2  0  0  0
  9 10  2  0  0  0
  9 15  1  0  0  0
 10 11  1  0  0  0
 11 12  2  0  0  0
 12 13  1  0  0  0
 12 14  1  0  0  0
 13 36  1  0  0  0
 14 15  2  0  0  0
 16 17  1  0  0  0
 17 18  1  0  0  0
 18 19  2  0  0  0
 18 20  1  0  0  0
 20 21  2  0  0  0
 20 25  1  0  0  0
 21 22  1  0  0  0
 22 23  2  0  0  0
 23 24  1  0  0  0
 23 26  1  0  0  0
 24 25  2  0  0  0
 26 27  1  0  0  0
 27 28  1  0  0  0
 28 29  1  0  0  0
 29 30  1  0  0  0
 29 34  1  0  0  0
 30 31  1  0  0  0
 31 32  1  0  0  0
 32 33  1  0  0  0
 33 34  1  0  0  0
M  END
>  <CHROM.0>
-119.64603522,-60.56480275,56.61839813

>  <CHROM.1>
-123.68860359,48.44767878,-118.38600309,56.07299623,-10.63488370,-48.68523305
77.99772405,-40.35323657,-102.22303087,31.01508477,-0.54618581,26.89529281
-0.25339099,-0.06887054,-1.92589595

>  <FORMUL>
      RAL    C28 H27 N1 O4 S1

>  <HET>
 RAL  A 600      34

>  <HETNAM>
     RAL RALOXIFENE

>  <Name>
RAL.pdb

>  <RI>
3.85496e+07

>  <Rbt.Current_Directory>
/home/malgorzata/Desktop/rDOCK_IFD/Wyniki/6_estrogen_receptor

>  <Rbt.Executable>
rbdock ($Id: //depot/dev/client3/rdock/2013.1/src/exe/rbdock.cxx#4 $)

>  <Rbt.Library>
libRbt.so (2013.1, Build901 2013/11/27)

>  <Rbt.Parameter_File>
/home/malgorzata/Desktop/rDock_2013.1_src/data/scripts/soft_docking.prm

>  <Rbt.Receptor>
cavity.prm

>  <SCORE>
-28.6458

>  <SCORE.INTER>
-30.3747

>  <SCORE.INTER.CONST>
1

>  <SCORE.INTER.POLAR>
-1.93893

>  <SCORE.INTER.REPUL>
0

>  <SCORE.INTER.ROT>
7

>  <SCORE.INTER.VDW>
-36.1823

>  <SCORE.INTER.norm>
-0.893373

>  <SCORE.INTRA>
2.23083

>  <SCORE.INTRA.DIHEDRAL>
12.1686

>  <SCORE.INTRA.DIHEDRAL.0>
18.358

>  <SCORE.INTRA.POLAR>
0

>  <SCORE.INTRA.POLAR.0>
0

>  <SCORE.INTRA.REPUL>
0

>  <SCORE.INTRA.REPUL.0>
0

>  <SCORE.INTRA.VDW>
-0.202893

>  <SCORE.INTRA.VDW.0>
-1.94569

>  <SCORE.INTRA.norm>
0.0656126

>  <SCORE.RESTR>
0.474625

>  <SCORE.RESTR.CAVITY>
0.474625

>  <SCORE.RESTR.norm>
0.0139596

>  <SCORE.SYSTEM>
-0.976522

>  <SCORE.SYSTEM.CONST>
0

>  <SCORE.SYSTEM.DIHEDRAL>
0.804779

>  <SCORE.SYSTEM.VDW>
-1.37891

>  <SCORE.SYSTEM.norm>
-0.0287212

>  <SCORE.heavy>
34

>  <SCORE.norm>
-0.842522

$$$$
RAL.pdb
  rDOCK(R)          3D
libRbt.so/2013.1/901 2013/11/27
 36 40  0  0  0  0  0  0  0  0999 V2000
   32.3806   -1.6954   27.4641 C   0  0  0  0  0  0
   33.4526   -1.4080   28.2691 C   0  0  0  0  0  0
   33.3234   -0.7297   29.4489 C   0  0  0  0  0  0
   34.4703   -0.5319   30.1765 O   0  0  0  0  0  0
   32.0517   -0.3242   29.8698 C   0  0  0  0  0  0
   30.9767   -0.6441   29.0777 C   0  0  0  0  0  0
   29.3790   -0.2689   29.2722 S   0  0  0  0  0  0
   28.7861   -1.0302   27.8871 C   0  0  0  0  0  0
   27.3612   -0.9652   27.4544 C   0  0  0  0  0  0
   26.7857   -2.1798   27.1360 C   0  0  0  0  0  0
   25.4395   -2.2039   26.8096 C   0  0  0  0  0  0
   24.6888   -1.0458   26.7600 C   0  0  0  0  0  0
   23.3392   -1.1702   26.4252 O   0  0  0  0  0  0
   25.2534    0.1592   27.1228 C   0  0  0  0  0  0
   26.6001    0.1712   27.4650 C   0  0  0  0  0  0
   31.1428   -1.3372   27.8448 C   0  0  0  0  0  0
   29.8797   -1.5319   27.1502 C   0  0  0  0  0  0
   29.8001   -2.1499   25.9168 C   0  0  0  0  0  0
   28.7412   -2.6933   25.5782 O   0  0  0  0  0  0
   30.9296   -2.2070   24.9824 C   0  0  0  0  0  0
   31.8231   -3.2584   25.0220 C   0  0  0  0  0  0
   32.9051   -3.3348   24.1666 C   0  0  0  0  0  0
   33.1130   -2.3002   23.2561 C   0  0  0  0  0  0
   32.2195   -1.2455   23.2019 C   0  0  0  0  0  0
   31.1278   -1.2078   24.0531 C   0  0  0  0  0  0
   34.1057   -2.1534   22.3328 O   0  0  0  0  0  0
   33.7410   -2.3404   20.9737 C   0  0  0  0  0  0
   33.0741   -3.6775   20.7899 C   0  0  0  0  0  0
   32.4731   -4.2439   19.5976 N   0  0  0  0  0  0
   31.1444   -3.6310   19.3971 C   0  0  0  0  0  0
   30.4641   -4.0396   18.0750 C   0  0  0  0  0  0
   30.2511   -5.5607   18.1384 C   0  0  0  0  0  0
   31.6988   -6.1406   18.1654 C   0  0  0  0  0  0
   32.3294   -5.7096   19.5011 C   0  0  0  0  0  0
   34.5000    0.1374   30.8316 H   0  0  0  0  0  0
   23.0219   -1.9662   26.0462 H   0  0  0  0  0  0
  1  2  2  0  0  0
  1 16  1  0  0  0
  2  3  1  0  0  0
  3  4  1  0  0  0
  3  5  2  0  0  0
  4 35  1  0  0  0
  5  6  1  0  0  0
  6  7  1  0  0  0
  6 16  2  0  0  0
  7  8  1  0  0  0
  8  9  1  0  0  0
  8 17  2  0  0  0
  9 10  2  0  0  0
  9 15  1  0  0  0
 10 11  1  0  0  0
 11 12  2  0  0  0
 12 13  1  0  0  0
 12 14  1  0  0  0
 13 36  1  0  0  0
 14 15  2  0  0  0
 16 17  1  0  0  0
 17 18  1  0  0  0
 18 19  2  0  0  0
 18 20  1  0  0  0
 20 21  2  0  0  0
 20 25  1  0  0  0
 21 22  1  0  0  0
 22 23  2  0  0  0
 23 24  1  0  0  0
 23 26  1  0  0  0
 24 25  2  0  0  0
 26 27  1  0  0  0
 27 28  1  0  0  0
 28 29  1  0  0  0
 29 30  1  0  0  0
 29 34  1  0  0  0
 30 31  1  0  0  0
 31 32  1  0  0  0
 32 33  1  0  0  0
 33 34  1  0  0  0
M  END
>  <CHROM.0>
-76.03891812,-60.56480275,-119.34436573

>  <CHROM.1>
160.67633500,-131.17226216,-14.85432202,-23.96190937,90.12952447,107.38053542
-54.17583733,175.84775958,-77.67847821,30.42535790,-2.09787927,25.04289469
-1.91234928,0.02981764,-1.94506983

>  <FORMUL>
      RAL    C28 H27 N1 O4 S1

>  <HET>
 RAL  A 600      34

>  <HETNAM>
     RAL RALOXIFENE

>  <Name>
RAL.pdb

>  <RI>
3.85496e+07

>  <Rbt.Current_Directory>
/home/malgorzata/Desktop/rDOCK_IFD/Wyniki/6_estrogen_receptor

>  <Rbt.Executable>
rbdock ($Id: //depot/dev/client3/rdock/2013.1/src/exe/rbdock.cxx#4 $)

>  <Rbt.Library>
libRbt.so (2013.1, Build901 2013/11/27)

>  <Rbt.Parameter_File>
/home/malgorzata/Desktop/rDock_2013.1_src/data/scripts/soft_docking.prm

>  <Rbt.Receptor>
cavity.prm

>  <SCORE>
-28.5256

>  <SCORE.INTER>
-31.8311

>  <SCORE.INTER.CONST>
1

>  <SCORE.INTER.POLAR>
-1.42434

>  <SCORE.INTER.REPUL>
0.282185

>  <SCORE.INTER.ROT>
7

>  <SCORE.INTER.VDW>
-40.7992

>  <SCORE.INTER.norm>
-0.936208

>  <SCORE.INTRA>
4.04366

>  <SCORE.INTRA.DIHEDRAL>
10.0697

>  <SCORE.INTRA.DIHEDRAL.0>
18.358

>  <SCORE.INTRA.POLAR>
0

>  <SCORE.INTRA.POLAR.0>
0

>  <SCORE.INTRA.REPUL>
0

>  <SCORE.INTRA.REPUL.0>
0

>  <SCORE.INTRA.VDW>
2.02971

>  <SCORE.INTRA.VDW.0>
-1.94569

>  <SCORE.INTRA.norm>
0.118931

>  <SCORE.RESTR>
0.0554066

>  <SCORE.RESTR.CAVITY>
0.0554066

>  <SCORE.RESTR.norm>
0.00162961

>  <SCORE.SYSTEM>
-0.793558

>  <SCORE.SYSTEM.CONST>
0

>  <SCORE.SYSTEM.DIHEDRAL>
0.804392

>  <SCORE.SYSTEM.VDW>
-1.19575

>  <SCORE.SYSTEM.norm>
-0.0233399

>  <SCORE.heavy>
34

>  <SCORE.norm>
-0.838988

$$$$
RAL.pdb
  rDOCK(R)          3D
libRbt.so/2013.1/901 2013/11/27
 36 40  0  0  0  0  0  0  0  0999 V2000
   33.0998   -0.7392   26.0808 C   0  0  0  0  0  0
   34.2924   -0.0640   26.1229 C   0  0  0  0  0  0
   34.3924    1.2210   26.5784 C   0  0  0  0  0  0
   35.6487    1.7737   26.5972 O   0  0  0  0  0  0
   33.2442    1.8758   27.0383 C   0  0  0  0  0  0
   32.0580    1.1843   27.0267 C   0  0  0  0  0  0
   30.5426    1.6891   27.4512 S   0  0  0  0  0  0
   29.7167    0.2507   27.1374 C   0  0  0  0  0  0
   28.2379    0.1047   27.2543 C   0  0  0  0  0  0
   27.5747    1.2071   27.7571 C   0  0  0  0  0  0
   26.1907    1.1732   27.8115 C   0  0  0  0  0  0
   25.4807    0.0571   27.4148 C   0  0  0  0  0  0
   24.0887    0.1179   27.5023 O   0  0  0  0  0  0
   26.1415   -1.0243   26.8703 C   0  0  0  0  0  0
   27.5286   -0.9745   26.8041 C   0  0  0  0  0  0
   31.9800   -0.1484   26.5307 C   0  0  0  0  0  0
   30.6231   -0.6706   26.5714 C   0  0  0  0  0  0
   30.3005   -1.9320   26.1083 C   0  0  0  0  0  0
   29.5108   -2.6316   26.7549 O   0  0  0  0  0  0
   30.8677   -2.4959   24.8784 C   0  0  0  0  0  0
   30.4457   -2.0525   23.6412 C   0  0  0  0  0  0
   30.9485   -2.5728   22.4643 C   0  0  0  0  0  0
   31.8901   -3.5980   22.5340 C   0  0  0  0  0  0
   32.3263   -4.0448   23.7685 C   0  0  0  0  0  0
   31.8253   -3.4865   24.9326 C   0  0  0  0  0  0
   32.5110   -4.2660   21.5203 O   0  0  0  0  0  0
   31.6747   -4.9951   20.6348 C   0  0  0  0  0  0
   30.8522   -4.0530   19.7968 C   0  0  0  0  0  0
   30.8296   -3.8929   18.3555 N   0  0  0  0  0  0
   30.3330   -5.1428   17.7454 C   0  0  0  0  0  0
   30.1184   -5.0485   16.2213 C   0  0  0  0  0  0
   31.4937   -4.7609   15.5976 C   0  0  0  0  0  0
   31.8659   -3.3492   16.1466 C   0  0  0  0  0  0
   32.0726   -3.4988   17.6640 C   0  0  0  0  0  0
   36.3651    1.3225   26.1957 H   0  0  0  0  0  0
   23.6666    0.9315   27.6974 H   0  0  0  0  0  0
  1  2  2  0  0  0
  1 16  1  0  0  0
  2  3  1  0  0  0
  3  4  1  0  0  0
  3  5  2  0  0  0
  4 35  1  0  0  0
  5  6  1  0  0  0
  6  7  1  0  0  0
  6 16  2  0  0  0
  7  8  1  0  0  0
  8  9  1  0  0  0
  8 17  2  0  0  0
  9 10  2  0  0  0
  9 15  1  0  0  0
 10 11  1  0  0  0
 11 12  2  0  0  0
 12 13  1  0  0  0
 12 14  1  0  0  0
 13 36  1  0  0  0
 14 15  2  0  0  0
 16 17  1  0  0  0
 17 18  1  0  0  0
 18 19  2  0  0  0
 18 20  1  0  0  0
 20 21  2  0  0  0
 20 25  1  0  0  0
 21 22  1  0  0  0
 22 23  2  0  0  0
 23 24  1  0  0  0
 23 26  1  0  0  0
 24 25  2  0  0  0
 26 27  1  0  0  0
 27 28  1  0  0  0
 28 29  1  0  0  0
 29 30  1  0  0  0
 29 34  1  0  0  0
 30 31  1  0  0  0
 31 32  1  0  0  0
 32 33  1  0  0  0
 33 34  1  0  0  0
M  END
>  <CHROM.0>
45.10021999,-60.56480275,-55.41894409

>  <CHROM.1>
8.68841879,-5.46590702,9.08279532,-41.10748687,-74.15012430,-61.28894134
69.26259550,119.02513681,64.23668237,30.61000917,-1.52587425,24.07480422
-1.76112041,-0.12273721,-2.08299909

>  <FORMUL>
      RAL    C28 H27 N1 O4 S1

>  <HET>
 RAL  A 600      34

>  <HETNAM>
     RAL RALOXIFENE

>  <Name>
RAL.pdb

>  <RI>
3.85496e+07

>  <Rbt.Current_Directory>
/home/malgorzata/Desktop/rDOCK_IFD/Wyniki/6_estrogen_receptor

>  <Rbt.Executable>
rbdock ($Id: //depot/dev/client3/rdock/2013.1/src/exe/rbdock.cxx#4 $)

>  <Rbt.Library>
libRbt.so (2013.1, Build901 2013/11/27)

>  <Rbt.Parameter_File>
/home/malgorzata/Desktop/rDock_2013.1_src/data/scripts/soft_docking.prm

>  <Rbt.Receptor>
cavity.prm

>  <SCORE>
-30.4639

>  <SCORE.INTER>
-33.3009

>  <SCORE.INTER.CONST>
1

>  <SCORE.INTER.POLAR>
-2.22879

>  <SCORE.INTER.REPUL>
0.536618

>  <SCORE.INTER.ROT>
7

>  <SCORE.INTER.VDW>
-40.8061

>  <SCORE.INTER.norm>
-0.979437

>  <SCORE.INTRA>
3.22633

>  <SCORE.INTRA.DIHEDRAL>
8.3617

>  <SCORE.INTRA.DIHEDRAL.0>
18.358

>  <SCORE.INTRA.POLAR>
0

>  <SCORE.INTRA.POLAR.0>
0

>  <SCORE.INTRA.REPUL>
0

>  <SCORE.INTRA.REPUL.0>
0

>  <SCORE.INTRA.VDW>
1.55399

>  <SCORE.INTRA.VDW.0>
-1.94569

>  <SCORE.INTRA.norm>
0.0948921

>  <SCORE.RESTR>
0

>  <SCORE.RESTR.CAVITY>
0

>  <SCORE.RESTR.norm>
0

>  <SCORE.SYSTEM>
-0.389409

>  <SCORE.SYSTEM.CONST>
0

>  <SCORE.SYSTEM.DIHEDRAL>
0.803688

>  <SCORE.SYSTEM.VDW>
-0.791253

>  <SCORE.SYSTEM.norm>
-0.0114532

>  <SCORE.heavy>
34

>  <SCORE.norm>
-0.895998

$$$$
RAL.pdb
  rDOCK(R)          3D
libRbt.so/2013.1/901 2013/11/27
 36 40  0  0  0  0  0  0  0  0999 V2000
   33.5696   -2.0299   27.5910 C   0  0  0  0  0  0
   34.7634   -1.6526   28.1499 C   0  0  0  0  0  0
   34.8553   -0.6558   29.0808 C   0  0  0  0  0  0
   36.1050   -0.3945   29.5848 O   0  0  0  0  0  0
   33.6916   -0.0009   29.5000 C   0  0  0  0  0  0
   32.4941   -0.4051   28.9633 C   0  0  0  0  0  0
   30.9744    0.1945   29.2130 S   0  0  0  0  0  0
   30.1344   -0.8552   28.1921 C   0  0  0  0  0  0
   28.6726   -0.7497   27.9203 C   0  0  0  0  0  0
   28.3085    0.2425   27.0310 C   0  0  0  0  0  0
   26.9757    0.3409   26.6656 C   0  0  0  0  0  0
   26.0178   -0.4983   27.1997 C   0  0  0  0  0  0
   24.7014   -0.3259   26.7680 O   0  0  0  0  0  0
   26.3900   -1.5173   28.0516 C   0  0  0  0  0  0
   27.7315   -1.6188   28.3993 C   0  0  0  0  0  0
   32.4299   -1.4355   27.9823 C   0  0  0  0  0  0
   31.0704   -1.6708   27.5217 C   0  0  0  0  0  0
   30.7697   -2.6010   26.5451 C   0  0  0  0  0  0
   29.8499   -3.4061   26.7375 O   0  0  0  0  0  0
   31.5072   -2.6918   25.2802 C   0  0  0  0  0  0
   32.1408   -1.5840   24.7541 C   0  0  0  0  0  0
   32.8309   -1.6319   23.5583 C   0  0  0  0  0  0
   32.8606   -2.8320   22.8502 C   0  0  0  0  0  0
   32.2359   -3.9508   23.3718 C   0  0  0  0  0  0
   31.5741   -3.8814   24.5862 C   0  0  0  0  0  0
   33.4603   -3.1129   21.6582 O   0  0  0  0  0  0
   34.7665   -2.5912   21.4665 C   0  0  0  0  0  0
   35.1558   -2.6750   20.0147 C   0  0  0  0  0  0
   36.4773   -2.7816   19.4265 N   0  0  0  0  0  0
   37.2419   -1.5599   19.7492 C   0  0  0  0  0  0
   38.7182   -1.6154   19.3075 C   0  0  0  0  0  0
   38.7173   -1.7522   17.7763 C   0  0  0  0  0  0
   38.0592   -3.1437   17.5252 C   0  0  0  0  0  0
   36.5924   -3.0338   17.9768 C   0  0  0  0  0  0
   36.4551    0.4736   29.5426 H   0  0  0  0  0  0
   24.1955    0.3966   27.0843 H   0  0  0  0  0  0
  1  2  2  0  0  0
  1 16  1  0  0  0
  2  3  1  0  0  0
  3  4  1  0  0  0
  3  5  2  0  0  0
  4 35  1  0  0  0
  5  6  1  0  0  0
  6  7  1  0  0  0
  6 16  2  0  0  0
  7  8  1  0  0  0
  8  9  1  0  0  0
  8 17  2  0  0  0
  9 10  2  0  0  0
  9 15  1  0  0  0
 10 11  1  0  0  0
 11 12  2  0  0  0
 12 13  1  0  0  0
 12 14  1  0  0  0
 13 36  1  0  0  0
 14 15  2  0  0  0
 16 17  1  0  0  0
 17 18  1  0  0  0
 18 19  2  0  0  0
 18 20  1  0  0  0
 20 21  2  0  0  0
 20 25  1  0  0  0
 21 22  1  0  0  0
 22 23  2  0  0  0
 23 24  1  0  0  0
 23 26  1  0  0  0
 24 25  2  0  0  0
 26 27  1  0  0  0
 27 28  1  0  0  0
 28 29  1  0  0  0
 29 30  1  0  0  0
 29 34  1  0  0  0
 30 31  1  0  0  0
 31 32  1  0  0  0
 32 33  1  0  0  0
 33 34  1  0  0  0
M  END
>  <CHROM.0>
22.96318147,-60.56480275,157.33733018

>  <CHROM.1>
125.13472060,77.51422541,-75.44939351,-47.96202937,-26.57104477,42.67975074
-165.71639804,-152.75131655,-63.63792087,32.41167304,-1.63694914,25.07921888
-2.29789152,-0.03323599,-1.79745324

>  <FORMUL>
      RAL    C28 H27 N1 O4 S1

>  <HET>
 RAL  A 600      34

>  <HETNAM>
     RAL RALOXIFENE

>  <Name>
RAL.pdb

>  <RI>
3.85496e+07

>  <Rbt.Current_Directory>
/home/malgorzata/Desktop/rDOCK_IFD/Wyniki/6_estrogen_receptor

>  <Rbt.Executable>
rbdock ($Id: //depot/dev/client3/rdock/2013.1/src/exe/rbdock.cxx#4 $)

>  <Rbt.Library>
libRbt.so (2013.1, Build901 2013/11/27)

>  <Rbt.Parameter_File>
/home/malgorzata/Desktop/rDock_2013.1_src/data/scripts/soft_docking.prm

>  <Rbt.Receptor>
cavity.prm

>  <SCORE>
-31.7724

>  <SCORE.INTER>
-33.5724

>  <SCORE.INTER.CONST>
1

>  <SCORE.INTER.POLAR>
-1.60468

>  <SCORE.INTER.REPUL>
0.509686

>  <SCORE.INTER.ROT>
7

>  <SCORE.INTER.VDW>
-43.0649

>  <SCORE.INTER.norm>
-0.987423

>  <SCORE.INTRA>
2.02436

>  <SCORE.INTRA.DIHEDRAL>
15.9837

>  <SCORE.INTRA.DIHEDRAL.0>
18.358

>  <SCORE.INTRA.POLAR>
0

>  <SCORE.INTRA.POLAR.0>
0

>  <SCORE.INTRA.REPUL>
0

>  <SCORE.INTRA.REPUL.0>
0

>  <SCORE.INTRA.VDW>
-1.17238

>  <SCORE.INTRA.VDW.0>
-1.94569

>  <SCORE.INTRA.norm>
0.0595401

>  <SCORE.RESTR>
0.11617

>  <SCORE.RESTR.CAVITY>
0.11617

>  <SCORE.RESTR.norm>
0.00341676

>  <SCORE.SYSTEM>
-0.340528

>  <SCORE.SYSTEM.CONST>
0

>  <SCORE.SYSTEM.DIHEDRAL>
0.806576

>  <SCORE.SYSTEM.VDW>
-0.743816

>  <SCORE.SYSTEM.norm>
-0.0100155

>  <SCORE.heavy>
34

>  <SCORE.norm>
-0.934482

$$$$
RAL.pdb
  rDOCK(R)          3D
libRbt.so/2013.1/901 2013/11/27
 36 40  0  0  0  0  0  0  0  0999 V2000
   26.5275   -2.1518   25.9346 C   0  0  0  0  0  0
   25.1893   -1.8599   25.8716 C   0  0  0  0  0  0
   24.6636   -0.7107   26.3927 C   0  0  0  0  0  0
   23.3127   -0.5236   26.2377 O   0  0  0  0  0  0
   25.5161    0.2185   26.9998 C   0  0  0  0  0  0
   26.8600   -0.0616   27.0303 C   0  0  0  0  0  0
   28.0978    0.7976   27.7092 S   0  0  0  0  0  0
   29.3632   -0.2385   27.2909 C   0  0  0  0  0  0
   30.7759   -0.0320   27.7193 C   0  0  0  0  0  0
   31.1813    1.2861   27.7982 C   0  0  0  0  0  0
   32.4548    1.5547   28.2733 C   0  0  0  0  0  0
   33.3225    0.5393   28.6242 C   0  0  0  0  0  0
   34.5836    0.9077   29.0962 O   0  0  0  0  0  0
   32.9000   -0.7733   28.5884 C   0  0  0  0  0  0
   31.6153   -1.0321   28.1265 C   0  0  0  0  0  0
   27.3781   -1.2750   26.4942 C   0  0  0  0  0  0
   28.8175   -1.3833   26.6726 C   0  0  0  0  0  0
   29.5336   -2.4915   26.2620 C   0  0  0  0  0  0
   29.1701   -3.6171   26.6257 O   0  0  0  0  0  0
   30.7288   -2.3967   25.4166 C   0  0  0  0  0  0
   31.0068   -1.2388   24.7185 C   0  0  0  0  0  0
   32.1153   -1.1219   23.9025 C   0  0  0  0  0  0
   32.9607   -2.2208   23.7601 C   0  0  0  0  0  0
   32.6964   -3.3838   24.4612 C   0  0  0  0  0  0
   31.5926   -3.4644   25.2937 C   0  0  0  0  0  0
   34.0932   -2.3435   23.0106 O   0  0  0  0  0  0
   33.9637   -3.0243   21.7718 C   0  0  0  0  0  0
   35.0065   -2.5432   20.7985 C   0  0  0  0  0  0
   36.3593   -3.0247   20.5948 N   0  0  0  0  0  0
   37.2992   -1.9036   20.7972 C   0  0  0  0  0  0
   38.7831   -2.3210   20.7571 C   0  0  0  0  0  0
   39.0480   -2.8793   19.3496 C   0  0  0  0  0  0
   38.1583   -4.1585   19.2806 C   0  0  0  0  0  0
   36.6937   -3.6883   19.3195 C   0  0  0  0  0  0
   22.8385   -1.0310   25.6086 H   0  0  0  0  0  0
   34.7340    1.7823   29.3973 H   0  0  0  0  0  0
  1  2  2  0  0  0
  1 16  1  0  0  0
  2  3  1  0  0  0
  3  4  1  0  0  0
  3  5  2  0  0  0
  4 35  1  0  0  0
  5  6  1  0  0  0
  6  7  1  0  0  0
  6 16  2  0  0  0
  7  8  1  0  0  0
  8  9  1  0  0  0
  8 17  2  0  0  0
  9 10  2  0  0  0
  9 15  1  0  0  0
 10 11  1  0  0  0
 11 12  2  0  0  0
 12 13  1  0  0  0
 12 14  1  0  0  0
 13 36  1  0  0  0
 14 15  2  0  0  0
 16 17  1  0  0  0
 17 18  1  0  0  0
 18 19  2  0  0  0
 18 20  1  0  0  0
 20 21  2  0  0  0
 20 25  1  0  0  0
 21 22  1  0  0  0
 22 23  2  0  0  0
 23 24  1  0  0  0
 23 26  1  0  0  0
 24 25  2  0  0  0
 26 27  1  0  0  0
 27 28  1  0  0  0
 28 29  1  0  0  0
 29 30  1  0  0  0
 29 34  1  0  0  0
 30 31  1  0  0  0
 31 32  1  0  0  0
 32 33  1  0  0  0
 33 34  1  0  0  0
M  END
>  <CHROM.0>
141.79617450,-60.56480275,-80.34865213

>  <CHROM.1>
-16.46888259,-35.03167359,17.54567535,128.14675248,-16.30015398,-100.78782819
152.87927032,88.21583581,-122.20612571,31.47813469,-1.41943297,25.06519049
2.54394573,0.10139012,1.06616546

>  <FORMUL>
      RAL    C28 H27 N1 O4 S1

>  <HET>
 RAL  A 600      34

>  <HETNAM>
     RAL RALOXIFENE

>  <Name>
RAL.pdb

>  <RI>
3.85496e+07

>  <Rbt.Current_Directory>
/home/malgorzata/Desktop/rDOCK_IFD/Wyniki/6_estrogen_receptor

>  <Rbt.Executable>
rbdock ($Id: //depot/dev/client3/rdock/2013.1/src/exe/rbdock.cxx#4 $)

>  <Rbt.Library>
libRbt.so (2013.1, Build901 2013/11/27)

>  <Rbt.Parameter_File>
/home/malgorzata/Desktop/rDock_2013.1_src/data/scripts/soft_docking.prm

>  <Rbt.Receptor>
cavity.prm

>  <SCORE>
-36.6052

>  <SCORE.INTER>
-36.3356

>  <SCORE.INTER.CONST>
1

>  <SCORE.INTER.POLAR>
-1.69223

>  <SCORE.INTER.REPUL>
0

>  <SCORE.INTER.ROT>
7

>  <SCORE.INTER.VDW>
-42.982

>  <SCORE.INTER.norm>
-1.06869

>  <SCORE.INTRA>
0.2355

>  <SCORE.INTRA.DIHEDRAL>
6.94243

>  <SCORE.INTRA.DIHEDRAL.0>
18.358

>  <SCORE.INTRA.POLAR>
0

>  <SCORE.INTRA.POLAR.0>
0

>  <SCORE.INTRA.REPUL>
0

>  <SCORE.INTRA.REPUL.0>
0

>  <SCORE.INTRA.VDW>
-1.15299

>  <SCORE.INTRA.VDW.0>
-1.94569

>  <SCORE.INTRA.norm>
0.00692647

>  <SCORE.RESTR>
0

>  <SCORE.RESTR.CAVITY>
0

>  <SCORE.RESTR.norm>
0

>  <SCORE.SYSTEM>
-0.505102

>  <SCORE.SYSTEM.CONST>
0

>  <SCORE.SYSTEM.DIHEDRAL>
0.806446

>  <SCORE.SYSTEM.VDW>
-0.908325

>  <SCORE.SYSTEM.norm>
-0.0148559

>  <SCORE.heavy>
34

>  <SCORE.norm>
-1.07662

$$$$
