RAL.pdb
  rDOCK(R)          3D
libRbt.so/2013.1/901 2013/11/27
 36 40  0  0  0  0  0  0  0  0999 V2000
   30.4985   -2.9493   20.1906 C   0  0  0  0  0  0
   29.2893   -3.3010   19.6482 C   0  0  0  0  0  0
   29.1730   -4.2395   18.6611 C   0  0  0  0  0  0
   27.9028   -4.5226   18.2245 O   0  0  0  0  0  0
   30.3224   -4.8851   18.1911 C   0  0  0  0  0  0
   31.5273   -4.5548   18.7609 C   0  0  0  0  0  0
   33.0459   -5.0949   18.3959 S   0  0  0  0  0  0
   33.8988   -4.1993   19.5449 C   0  0  0  0  0  0
   35.3854   -4.1968   19.6531 C   0  0  0  0  0  0
   35.9365   -3.0427   20.1751 C   0  0  0  0  0  0
   37.3055   -3.0047   20.3851 C   0  0  0  0  0  0
   38.1165   -4.0704   20.0480 C   0  0  0  0  0  0
   39.4834   -3.9411   20.3003 O   0  0  0  0  0  0
   37.5592   -5.2383   19.5702 C   0  0  0  0  0  0
   36.1834   -5.2731   19.3787 C   0  0  0  0  0  0
   31.6210   -3.5609   19.7764 C   0  0  0  0  0  0
   32.9937   -3.3409   20.2041 C   0  0  0  0  0  0
   33.3311   -2.3974   21.1557 C   0  0  0  0  0  0
   33.8876   -1.3507   20.8009 O   0  0  0  0  0  0
   33.0716   -2.5849   22.5874 C   0  0  0  0  0  0
   32.2816   -3.6274   23.0287 C   0  0  0  0  0  0
   32.0056   -3.8232   24.3680 C   0  0  0  0  0  0
   32.5197   -2.9198   25.2965 C   0  0  0  0  0  0
   33.3193   -1.8760   24.8665 C   0  0  0  0  0  0
   33.6022   -1.7190   23.5200 C   0  0  0  0  0  0
   32.3735   -2.9029   26.6522 O   0  0  0  0  0  0
   31.0453   -2.9723   27.1482 C   0  0  0  0  0  0
   30.2265   -1.8275   26.6140 C   0  0  0  0  0  0
   30.2275   -0.4348   27.0187 N   0  0  0  0  0  0
   30.5307   -0.3587   28.4621 C   0  0  0  0  0  0
   30.7104    1.0808   28.9849 C   0  0  0  0  0  0
   29.3691    1.8005   28.7701 C   0  0  0  0  0  0
   29.2093    1.8394   27.2191 C   0  0  0  0  0  0
   29.0297    0.3848   26.7505 C   0  0  0  0  0  0
   27.1661   -4.3323   18.7714 H   0  0  0  0  0  0
   39.7971   -3.2359   20.8316 H   0  0  0  0  0  0
  1  2  2  0  0  0
  1 16  1  0  0  0
  2  3  1  0  0  0
  3  4  1  0  0  0
  3  5  2  0  0  0
  4 35  1  0  0  0
  5  6  1  0  0  0
  6  7  1  0  0  0
  6 16  2  0  0  0
  7  8  1  0  0  0
  8  9  1  0  0  0
  8 17  2  0  0  0
  9 10  2  0  0  0
  9 15  1  0  0  0
 10 11  1  0  0  0
 11 12  2  0  0  0
 12 13  1  0  0  0
 12 14  1  0  0  0
 13 36  1  0  0  0
 14 15  2  0  0  0
 16 17  1  0  0  0
 17 18  1  0  0  0
 18 19  2  0  0  0
 18 20  1  0  0  0
 20 21  2  0  0  0
 20 25  1  0  0  0
 21 22  1  0  0  0
 22 23  2  0  0  0
 23 24  1  0  0  0
 23 26  1  0  0  0
 24 25  2  0  0  0
 26 27  1  0  0  0
 27 28  1  0  0  0
 28 29  1  0  0  0
 29 30  1  0  0  0
 29 34  1  0  0  0
 30 31  1  0  0  0
 31 32  1  0  0  0
 32 33  1  0  0  0
 33 34  1  0  0  0
M  END
>  <CHROM.0>
84.20672997,-60.56480275,0.51546769

>  <CHROM.1>
-21.61640406,152.14280457,12.03792708,74.28282838,-10.45074208,-52.13356645
-58.31746484,-76.52544592,-32.04525241,32.54775335,-2.78470409,22.40848509
1.13409758,0.06949048,-2.00423704

>  <FORMUL>
      RAL    C28 H27 N1 O4 S1

>  <HET>
 RAL  A 600      34

>  <HETNAM>
     RAL RALOXIFENE

>  <Name>
RAL.pdb

>  <RI>
0

>  <Rbt.Current_Directory>
/home/malgorzata/Desktop/rDOCK_IFD/Wyniki/6_estrogen_receptor

>  <Rbt.Executable>
rbdock ($Id: //depot/dev/client3/rdock/2013.1/src/exe/rbdock.cxx#4 $)

>  <Rbt.Library>
libRbt.so (2013.1, Build901 2013/11/27)

>  <Rbt.Parameter_File>
/home/malgorzata/Desktop/rDock_2013.1_src/data/scripts/soft_docking.prm

>  <Rbt.Receptor>
cavity.prm

>  <SCORE>
-25.2981

>  <SCORE.INTER>
-26.5159

>  <SCORE.INTER.CONST>
1

>  <SCORE.INTER.POLAR>
-1.13858

>  <SCORE.INTER.REPUL>
0

>  <SCORE.INTER.ROT>
7

>  <SCORE.INTER.VDW>
-35.0448

>  <SCORE.INTER.norm>
-0.779881

>  <SCORE.INTRA>
1.93519

>  <SCORE.INTRA.DIHEDRAL>
0.909775

>  <SCORE.INTRA.DIHEDRAL.0>
18.358

>  <SCORE.INTRA.POLAR>
0

>  <SCORE.INTRA.POLAR.0>
0

>  <SCORE.INTRA.REPUL>
0

>  <SCORE.INTRA.REPUL.0>
0

>  <SCORE.INTRA.VDW>
1.75324

>  <SCORE.INTRA.VDW.0>
-1.94569

>  <SCORE.INTRA.norm>
0.0569174

>  <SCORE.RESTR>
0

>  <SCORE.RESTR.CAVITY>
0

>  <SCORE.RESTR.norm>
0

>  <SCORE.SYSTEM>
-0.717357

>  <SCORE.SYSTEM.CONST>
0

>  <SCORE.SYSTEM.DIHEDRAL>
0.804525

>  <SCORE.SYSTEM.VDW>
-1.11962

>  <SCORE.SYSTEM.norm>
-0.0210987

>  <SCORE.heavy>
34

>  <SCORE.norm>
-0.744062

$$$$
RAL.pdb
  rDOCK(R)          3D
libRbt.so/2013.1/901 2013/11/27
 36 40  0  0  0  0  0  0  0  0999 V2000
   34.1669   -0.5887   26.7167 C   0  0  0  0  0  0
   35.4085   -0.1543   27.1034 C   0  0  0  0  0  0
   35.6514    0.3612   28.3460 C   0  0  0  0  0  0
   36.9443    0.7325   28.6188 O   0  0  0  0  0  0
   34.6052    0.4367   29.2726 C   0  0  0  0  0  0
   33.3713   -0.0312   28.8929 C   0  0  0  0  0  0
   31.9455   -0.0343   29.7285 S   0  0  0  0  0  0
   30.9825   -0.7679   28.5521 C   0  0  0  0  0  0
   29.5133   -0.9733   28.6973 C   0  0  0  0  0  0
   29.1417   -2.1357   29.3443 C   0  0  0  0  0  0
   27.7951   -2.3488   29.5912 C   0  0  0  0  0  0
   26.8340   -1.4506   29.1710 C   0  0  0  0  0  0
   25.5032   -1.7489   29.4691 O   0  0  0  0  0  0
   27.2102   -0.2691   28.5665 C   0  0  0  0  0  0
   28.5642   -0.0563   28.3381 C   0  0  0  0  0  0
   33.1429   -0.5478   27.5856 C   0  0  0  0  0  0
   31.7578   -0.9447   27.3866 C   0  0  0  0  0  0
   31.2952   -1.4419   26.1831 C   0  0  0  0  0  0
   30.1262   -1.2187   25.8441 O   0  0  0  0  0  0
   32.1291   -2.2451   25.2822 C   0  0  0  0  0  0
   32.2184   -3.6136   25.4390 C   0  0  0  0  0  0
   33.0058   -4.3968   24.6175 C   0  0  0  0  0  0
   33.7545   -3.7770   23.6186 C   0  0  0  0  0  0
   33.6667   -2.4070   23.4470 C   0  0  0  0  0  0
   32.8482   -1.6493   24.2677 C   0  0  0  0  0  0
   34.6011   -4.3349   22.7067 O   0  0  0  0  0  0
   35.8532   -4.7888   23.1978 C   0  0  0  0  0  0
   36.5266   -5.6698   22.1797 C   0  0  0  0  0  0
   37.6039   -5.3501   21.2627 N   0  0  0  0  0  0
   37.3850   -3.9915   20.7265 C   0  0  0  0  0  0
   38.5450   -3.4735   19.8526 C   0  0  0  0  0  0
   38.6476   -4.4204   18.6461 C   0  0  0  0  0  0
   39.0573   -5.7870   19.2765 C   0  0  0  0  0  0
   37.8688   -6.2604   20.1315 C   0  0  0  0  0  0
   37.6483    0.3930   28.1020 H   0  0  0  0  0  0
   24.8361   -1.1061   29.3283 H   0  0  0  0  0  0
  1  2  2  0  0  0
  1 16  1  0  0  0
  2  3  1  0  0  0
  3  4  1  0  0  0
  3  5  2  0  0  0
  4 35  1  0  0  0
  5  6  1  0  0  0
  6  7  1  0  0  0
  6 16  2  0  0  0
  7  8  1  0  0  0
  8  9  1  0  0  0
  8 17  2  0  0  0
  9 10  2  0  0  0
  9 15  1  0  0  0
 10 11  1  0  0  0
 11 12  2  0  0  0
 12 13  1  0  0  0
 12 14  1  0  0  0
 13 36  1  0  0  0
 14 15  2  0  0  0
 16 17  1  0  0  0
 17 18  1  0  0  0
 18 19  2  0  0  0
 18 20  1  0  0  0
 20 21  2  0  0  0
 20 25  1  0  0  0
 21 22  1  0  0  0
 22 23  2  0  0  0
 23 24  1  0  0  0
 23 26  1  0  0  0
 24 25  2  0  0  0
 26 27  1  0  0  0
 27 28  1  0  0  0
 28 29  1  0  0  0
 29 30  1  0  0  0
 29 34  1  0  0  0
 30 31  1  0  0  0
 31 32  1  0  0  0
 32 33  1  0  0  0
 33 34  1  0  0  0
M  END
>  <CHROM.0>
-48.43388411,-60.56480275,-9.60483206

>  <CHROM.1>
-19.37065896,-86.66777015,170.05901812,32.32342724,86.83402124,-73.39441620
166.05432231,101.61930516,-40.03573843,33.17985105,-2.17474628,25.72991911
-2.32404429,-0.21995536,-2.21983753

>  <FORMUL>
      RAL    C28 H27 N1 O4 S1

>  <HET>
 RAL  A 600      34

>  <HETNAM>
     RAL RALOXIFENE

>  <Name>
RAL.pdb

>  <RI>
0

>  <Rbt.Current_Directory>
/home/malgorzata/Desktop/rDOCK_IFD/Wyniki/6_estrogen_receptor

>  <Rbt.Executable>
rbdock ($Id: //depot/dev/client3/rdock/2013.1/src/exe/rbdock.cxx#4 $)

>  <Rbt.Library>
libRbt.so (2013.1, Build901 2013/11/27)

>  <Rbt.Parameter_File>
/home/malgorzata/Desktop/rDock_2013.1_src/data/scripts/soft_docking.prm

>  <Rbt.Receptor>
cavity.prm

>  <SCORE>
-29.5237

>  <SCORE.INTER>
-32.075

>  <SCORE.INTER.CONST>
1

>  <SCORE.INTER.POLAR>
-0.970922

>  <SCORE.INTER.REPUL>
0.165755

>  <SCORE.INTER.ROT>
7

>  <SCORE.INTER.VDW>
-42.0026

>  <SCORE.INTER.norm>
-0.943382

>  <SCORE.INTRA>
3.3874

>  <SCORE.INTRA.DIHEDRAL>
21.0382

>  <SCORE.INTRA.DIHEDRAL.0>
18.358

>  <SCORE.INTRA.POLAR>
0

>  <SCORE.INTRA.POLAR.0>
0

>  <SCORE.INTRA.REPUL>
0

>  <SCORE.INTRA.REPUL.0>
0

>  <SCORE.INTRA.VDW>
-0.820238

>  <SCORE.INTRA.VDW.0>
-1.94569

>  <SCORE.INTRA.norm>
0.0996293

>  <SCORE.RESTR>
0

>  <SCORE.RESTR.CAVITY>
0

>  <SCORE.RESTR.norm>
0

>  <SCORE.SYSTEM>
-0.83609

>  <SCORE.SYSTEM.CONST>
0

>  <SCORE.SYSTEM.DIHEDRAL>
0.803222

>  <SCORE.SYSTEM.POLAR>
-0.000439452

>  <SCORE.SYSTEM.VDW>
-1.23621

>  <SCORE.SYSTEM.norm>
-0.0245909

>  <SCORE.heavy>
34

>  <SCORE.norm>
-0.868344

$$$$
RAL.pdb
  rDOCK(R)          3D
libRbt.so/2013.1/901 2013/11/27
 36 40  0  0  0  0  0  0  0  0999 V2000
   26.6199   -1.9386   27.2490 C   0  0  0  0  0  0
   25.3000   -1.5673   27.2456 C   0  0  0  0  0  0
   24.8860   -0.3256   27.6397 C   0  0  0  0  0  0
   23.5398   -0.0694   27.5609 O   0  0  0  0  0  0
   25.8377    0.6163   28.0470 C   0  0  0  0  0  0
   27.1613    0.2520   28.0162 C   0  0  0  0  0  0
   28.4982    1.1080   28.4755 S   0  0  0  0  0  0
   29.6632   -0.0585   28.1124 C   0  0  0  0  0  0
   31.1160    0.1068   28.4019 C   0  0  0  0  0  0
   31.8352   -1.0685   28.4990 C   0  0  0  0  0  0
   33.2064   -0.9870   28.6800 C   0  0  0  0  0  0
   33.8463    0.2306   28.8028 C   0  0  0  0  0  0
   35.2311    0.2125   28.9787 O   0  0  0  0  0  0
   33.1336    1.4029   28.6596 C   0  0  0  0  0  0
   31.7613    1.3112   28.4614 C   0  0  0  0  0  0
   27.5628   -1.0547   27.6168 C   0  0  0  0  0  0
   29.0035   -1.2359   27.7012 C   0  0  0  0  0  0
   29.6184   -2.4353   27.3964 C   0  0  0  0  0  0
   29.2335   -3.4722   27.9513 O   0  0  0  0  0  0
   30.7305   -2.5388   26.4452 C   0  0  0  0  0  0
   30.6397   -1.9677   25.1918 C   0  0  0  0  0  0
   31.6623   -2.0596   24.2675 C   0  0  0  0  0  0
   32.8080   -2.7776   24.6058 C   0  0  0  0  0  0
   32.9133   -3.3473   25.8621 C   0  0  0  0  0  0
   31.8838   -3.2166   26.7791 C   0  0  0  0  0  0
   33.9273   -3.0113   23.8630 O   0  0  0  0  0  0
   34.2113   -2.0776   22.8322 C   0  0  0  0  0  0
   33.6755   -2.5727   21.5153 C   0  0  0  0  0  0
   34.2060   -3.6000   20.6398 N   0  0  0  0  0  0
   33.0837   -4.4029   20.1133 C   0  0  0  0  0  0
   33.5039   -5.4360   19.0485 C   0  0  0  0  0  0
   34.4700   -6.4136   19.7371 C   0  0  0  0  0  0
   35.7019   -5.5288   20.1006 C   0  0  0  0  0  0
   35.2321   -4.5219   21.1650 C   0  0  0  0  0  0
   23.0429   -0.3934   26.8356 H   0  0  0  0  0  0
   35.6306   -0.4697   29.4817 H   0  0  0  0  0  0
  1  2  2  0  0  0
  1 16  1  0  0  0
  2  3  1  0  0  0
  3  4  1  0  0  0
  3  5  2  0  0  0
  4 35  1  0  0  0
  5  6  1  0  0  0
  6  7  1  0  0  0
  6 16  2  0  0  0
  7  8  1  0  0  0
  8  9  1  0  0  0
  8 17  2  0  0  0
  9 10  2  0  0  0
  9 15  1  0  0  0
 10 11  1  0  0  0
 11 12  2  0  0  0
 12 13  1  0  0  0
 12 14  1  0  0  0
 13 36  1  0  0  0
 14 15  2  0  0  0
 16 17  1  0  0  0
 17 18  1  0  0  0
 18 19  2  0  0  0
 18 20  1  0  0  0
 20 21  2  0  0  0
 20 25  1  0  0  0
 21 22  1  0  0  0
 22 23  2  0  0  0
 23 24  1  0  0  0
 23 26  1  0  0  0
 24 25  2  0  0  0
 26 27  1  0  0  0
 27 28  1  0  0  0
 28 29  1  0  0  0
 29 30  1  0  0  0
 29 34  1  0  0  0
 30 31  1  0  0  0
 31 32  1  0  0  0
 32 33  1  0  0  0
 33 34  1  0  0  0
M  END
>  <CHROM.0>
65.94430456,-60.56480275,78.69887005

>  <CHROM.1>
-38.92569332,157.52980844,-35.49210997,127.24933508,-50.08071063,24.26737657
-95.83570299,-76.17827522,139.39990607,31.01047688,-1.76626502,25.78456375
2.25905788,0.01985447,1.01422245

>  <FORMUL>
      RAL    C28 H27 N1 O4 S1

>  <HET>
 RAL  A 600      34

>  <HETNAM>
     RAL RALOXIFENE

>  <Name>
RAL.pdb

>  <RI>
0

>  <Rbt.Current_Directory>
/home/malgorzata/Desktop/rDOCK_IFD/Wyniki/6_estrogen_receptor

>  <Rbt.Executable>
rbdock ($Id: //depot/dev/client3/rdock/2013.1/src/exe/rbdock.cxx#4 $)

>  <Rbt.Library>
libRbt.so (2013.1, Build901 2013/11/27)

>  <Rbt.Parameter_File>
/home/malgorzata/Desktop/rDock_2013.1_src/data/scripts/soft_docking.prm

>  <Rbt.Receptor>
cavity.prm

>  <SCORE>
-29.2722

>  <SCORE.INTER>
-32.4913

>  <SCORE.INTER.CONST>
1

>  <SCORE.INTER.POLAR>
-1.81256

>  <SCORE.INTER.REPUL>
0.0248731

>  <SCORE.INTER.ROT>
7

>  <SCORE.INTER.VDW>
-38.853

>  <SCORE.INTER.norm>
-0.955627

>  <SCORE.INTRA>
3.84151

>  <SCORE.INTRA.DIHEDRAL>
9.6862

>  <SCORE.INTRA.DIHEDRAL.0>
18.358

>  <SCORE.INTRA.POLAR>
0

>  <SCORE.INTRA.POLAR.0>
0

>  <SCORE.INTRA.REPUL>
0

>  <SCORE.INTRA.REPUL.0>
0

>  <SCORE.INTRA.VDW>
1.90427

>  <SCORE.INTRA.VDW.0>
-1.94569

>  <SCORE.INTRA.norm>
0.112985

>  <SCORE.RESTR>
0

>  <SCORE.RESTR.CAVITY>
0

>  <SCORE.RESTR.norm>
0

>  <SCORE.SYSTEM>
-0.622414

>  <SCORE.SYSTEM.CONST>
0

>  <SCORE.SYSTEM.DIHEDRAL>
0.80231

>  <SCORE.SYSTEM.VDW>
-1.02357

>  <SCORE.SYSTEM.norm>
-0.0183063

>  <SCORE.heavy>
34

>  <SCORE.norm>
-0.860948

$$$$
RAL.pdb
  rDOCK(R)          3D
libRbt.so/2013.1/901 2013/11/27
 36 40  0  0  0  0  0  0  0  0999 V2000
   32.9901   -1.0779   26.6821 C   0  0  0  0  0  0
   34.2314   -0.8716   27.2266 C   0  0  0  0  0  0
   34.4082   -0.4967   28.5292 C   0  0  0  0  0  0
   35.7034   -0.3517   28.9599 O   0  0  0  0  0  0
   33.2884   -0.3318   29.3523 C   0  0  0  0  0  0
   32.0490   -0.5729   28.8126 C   0  0  0  0  0  0
   30.5546   -0.4196   29.5014 S   0  0  0  0  0  0
   29.6307   -0.9032   28.1738 C   0  0  0  0  0  0
   28.1403   -0.8896   28.1555 C   0  0  0  0  0  0
   27.5698   -0.0142   27.2521 C   0  0  0  0  0  0
   26.1906   -0.0122   27.1201 C   0  0  0  0  0  0
   25.3910   -0.8297   27.8942 C   0  0  0  0  0  0
   24.0121   -0.7605   27.6872 O   0  0  0  0  0  0
   25.9646   -1.7353   28.7622 C   0  0  0  0  0  0
   27.3495   -1.7420   28.8757 C   0  0  0  0  0  0
   31.8934   -0.9462   27.4471 C   0  0  0  0  0  0
   30.4958   -1.1078   27.0782 C   0  0  0  0  0  0
   30.1013   -1.4337   25.7945 C   0  0  0  0  0  0
   28.8951   -1.4628   25.5200 O   0  0  0  0  0  0
   31.0550   -1.7660   24.7305 C   0  0  0  0  0  0
   31.6361   -3.0168   24.6719 C   0  0  0  0  0  0
   32.5488   -3.3570   23.6922 C   0  0  0  0  0  0
   32.9129   -2.3937   22.7530 C   0  0  0  0  0  0
   32.3310   -1.1393   22.7972 C   0  0  0  0  0  0
   31.3983   -0.8339   23.7743 C   0  0  0  0  0  0
   33.7911   -2.4935   21.7146 O   0  0  0  0  0  0
   35.0488   -3.0857   22.0019 C   0  0  0  0  0  0
   35.9333   -3.0529   20.7841 C   0  0  0  0  0  0
   37.3106   -3.4842   20.6418 N   0  0  0  0  0  0
   38.0591   -2.4498   19.8995 C   0  0  0  0  0  0
   39.5747   -2.7205   19.8131 C   0  0  0  0  0  0
   39.7458   -4.0385   19.0407 C   0  0  0  0  0  0
   39.0913   -5.1054   19.9713 C   0  0  0  0  0  0
   37.5852   -4.7943   20.0199 C   0  0  0  0  0  0
   36.2172   -1.1085   29.1629 H   0  0  0  0  0  0
   23.6234    0.0360   27.3831 H   0  0  0  0  0  0
  1  2  2  0  0  0
  1 16  1  0  0  0
  2  3  1  0  0  0
  3  4  1  0  0  0
  3  5  2  0  0  0
  4 35  1  0  0  0
  5  6  1  0  0  0
  6  7  1  0  0  0
  6 16  2  0  0  0
  7  8  1  0  0  0
  8  9  1  0  0  0
  8 17  2  0  0  0
  9 10  2  0  0  0
  9 15  1  0  0  0
 10 11  1  0  0  0
 11 12  2  0  0  0
 12 13  1  0  0  0
 12 14  1  0  0  0
 13 36  1  0  0  0
 14 15  2  0  0  0
 16 17  1  0  0  0
 17 18  1  0  0  0
 18 19  2  0  0  0
 18 20  1  0  0  0
 20 21  2  0  0  0
 20 25  1  0  0  0
 21 22  1  0  0  0
 22 23  2  0  0  0
 23 24  1  0  0  0
 23 26  1  0  0  0
 24 25  2  0  0  0
 26 27  1  0  0  0
 27 28  1  0  0  0
 28 29  1  0  0  0
 29 30  1  0  0  0
 29 34  1  0  0  0
 30 31  1  0  0  0
 31 32  1  0  0  0
 32 33  1  0  0  0
 33 34  1  0  0  0
M  END
>  <CHROM.0>
-76.15023614,-60.56480275,-157.04884885

>  <CHROM.1>
-77.35899568,115.35276939,-28.70873749,5.65492235,78.59659309,-46.78509946
-176.71826452,176.69809590,-134.66204320,32.26999844,-1.72882771,25.23883488
-2.44752792,0.01449853,-1.89116238

>  <FORMUL>
      RAL    C28 H27 N1 O4 S1

>  <HET>
 RAL  A 600      34

>  <HETNAM>
     RAL RALOXIFENE

>  <Name>
RAL.pdb

>  <RI>
0

>  <Rbt.Current_Directory>
/home/malgorzata/Desktop/rDOCK_IFD/Wyniki/6_estrogen_receptor

>  <Rbt.Executable>
rbdock ($Id: //depot/dev/client3/rdock/2013.1/src/exe/rbdock.cxx#4 $)

>  <Rbt.Library>
libRbt.so (2013.1, Build901 2013/11/27)

>  <Rbt.Parameter_File>
/home/malgorzata/Desktop/rDock_2013.1_src/data/scripts/soft_docking.prm

>  <Rbt.Receptor>
cavity.prm

>  <SCORE>
-34.3302

>  <SCORE.INTER>
-36.5026

>  <SCORE.INTER.CONST>
1

>  <SCORE.INTER.POLAR>
-2.18804

>  <SCORE.INTER.REPUL>
0.318879

>  <SCORE.INTER.ROT>
7

>  <SCORE.INTER.VDW>
-43.0576

>  <SCORE.INTER.norm>
-1.0736

>  <SCORE.INTRA>
2.88131

>  <SCORE.INTRA.DIHEDRAL>
14.1618

>  <SCORE.INTRA.DIHEDRAL.0>
18.358

>  <SCORE.INTRA.POLAR>
0

>  <SCORE.INTRA.POLAR.0>
0

>  <SCORE.INTRA.REPUL>
0

>  <SCORE.INTRA.REPUL.0>
0

>  <SCORE.INTRA.VDW>
0.0489433

>  <SCORE.INTRA.VDW.0>
-1.94569

>  <SCORE.INTRA.norm>
0.0847444

>  <SCORE.RESTR>
0

>  <SCORE.RESTR.CAVITY>
0

>  <SCORE.RESTR.norm>
0

>  <SCORE.SYSTEM>
-0.708946

>  <SCORE.SYSTEM.CONST>
0

>  <SCORE.SYSTEM.DIHEDRAL>
0.801964

>  <SCORE.SYSTEM.VDW>
-1.10993

>  <SCORE.SYSTEM.norm>
-0.0208514

>  <SCORE.heavy>
34

>  <SCORE.norm>
-1.00971

$$$$
RAL.pdb
  rDOCK(R)          3D
libRbt.so/2013.1/901 2013/11/27
 36 40  0  0  0  0  0  0  0  0999 V2000
   29.1419   -1.2217   26.5924 C   0  0  0  0  0  0
   28.0218   -1.6259   27.2721 C   0  0  0  0  0  0
   28.0068   -1.7916   28.6289 C   0  0  0  0  0  0
   26.8138   -2.1712   29.1916 O   0  0  0  0  0  0
   29.1672   -1.5242   29.3643 C   0  0  0  0  0  0
   30.2766   -1.0865   28.6838 C   0  0  0  0  0  0
   31.7893   -0.7399   29.2518 S   0  0  0  0  0  0
   32.4961   -0.2911   27.7860 C   0  0  0  0  0  0
   33.9370    0.0600   27.6368 C   0  0  0  0  0  0
   34.2767    0.6606   26.4402 C   0  0  0  0  0  0
   35.5819    1.0924   26.2687 C   0  0  0  0  0  0
   36.5399    0.8977   27.2441 C   0  0  0  0  0  0
   37.8270    1.3707   26.9826 O   0  0  0  0  0  0
   36.1883    0.3398   28.4557 C   0  0  0  0  0  0
   34.8730   -0.0750   28.6250 C   0  0  0  0  0  0
   30.2687   -0.9389   27.2674 C   0  0  0  0  0  0
   31.5591   -0.5071   26.7535 C   0  0  0  0  0  0
   31.7977   -0.3309   25.4038 C   0  0  0  0  0  0
   31.4728    0.7345   24.8648 O   0  0  0  0  0  0
   32.4122   -1.3649   24.5640 C   0  0  0  0  0  0
   33.0926   -2.4220   25.1343 C   0  0  0  0  0  0
   33.6951   -3.4039   24.3720 C   0  0  0  0  0  0
   33.6361   -3.3037   22.9831 C   0  0  0  0  0  0
   32.9501   -2.2530   22.4006 C   0  0  0  0  0  0
   32.3320   -1.2970   23.1892 C   0  0  0  0  0  0
   34.1594   -4.1354   22.0376 O   0  0  0  0  0  0
   35.5151   -3.9153   21.6790 C   0  0  0  0  0  0
   35.6038   -2.9192   20.5537 C   0  0  0  0  0  0
   36.6246   -1.9226   20.2923 N   0  0  0  0  0  0
   35.9947   -0.7549   19.6435 C   0  0  0  0  0  0
   36.9504    0.4397   19.4501 C   0  0  0  0  0  0
   38.0745   -0.0392   18.5172 C   0  0  0  0  0  0
   38.8022   -1.1434   19.3440 C   0  0  0  0  0  0
   37.8112   -2.3095   19.5044 C   0  0  0  0  0  0
   26.0715   -1.6014   29.1452 H   0  0  0  0  0  0
   38.0879    1.5567   26.1020 H   0  0  0  0  0  0
  1  2  2  0  0  0
  1 16  1  0  0  0
  2  3  1  0  0  0
  3  4  1  0  0  0
  3  5  2  0  0  0
  4 35  1  0  0  0
  5  6  1  0  0  0
  6  7  1  0  0  0
  6 16  2  0  0  0
  7  8  1  0  0  0
  8  9  1  0  0  0
  8 17  2  0  0  0
  9 10  2  0  0  0
  9 15  1  0  0  0
 10 11  1  0  0  0
 11 12  2  0  0  0
 12 13  1  0  0  0
 12 14  1  0  0  0
 13 36  1  0  0  0
 14 15  2  0  0  0
 16 17  1  0  0  0
 17 18  1  0  0  0
 18 19  2  0  0  0
 18 20  1  0  0  0
 20 21  2  0  0  0
 20 25  1  0  0  0
 21 22  1  0  0  0
 22 23  2  0  0  0
 23 24  1  0  0  0
 23 26  1  0  0  0
 24 25  2  0  0  0
 26 27  1  0  0  0
 27 28  1  0  0  0
 28 29  1  0  0  0
 29 30  1  0  0  0
 29 34  1  0  0  0
 30 31  1  0  0  0
 31 32  1  0  0  0
 32 33  1  0  0  0
 33 34  1  0  0  0
M  END
>  <CHROM.0>
-80.19038529,-60.56480275,-151.79296933

>  <CHROM.1>
-63.98746607,-167.27787905,-18.74495604,-96.22375469,-16.87922627,-85.08011783
-88.76217942,146.25288443,-148.02126798,33.45378593,-1.10617872,24.97874184
2.33968273,0.37951235,1.17766974

>  <FORMUL>
      RAL    C28 H27 N1 O4 S1

>  <HET>
 RAL  A 600      34

>  <HETNAM>
     RAL RALOXIFENE

>  <Name>
RAL.pdb

>  <RI>
0

>  <Rbt.Current_Directory>
/home/malgorzata/Desktop/rDOCK_IFD/Wyniki/6_estrogen_receptor

>  <Rbt.Executable>
rbdock ($Id: //depot/dev/client3/rdock/2013.1/src/exe/rbdock.cxx#4 $)

>  <Rbt.Library>
libRbt.so (2013.1, Build901 2013/11/27)

>  <Rbt.Parameter_File>
/home/malgorzata/Desktop/rDock_2013.1_src/data/scripts/soft_docking.prm

>  <Rbt.Receptor>
cavity.prm

>  <SCORE>
-32.8788

>  <SCORE.INTER>
-33.826

>  <SCORE.INTER.CONST>
1

>  <SCORE.INTER.POLAR>
-0.669309

>  <SCORE.INTER.REPUL>
0

>  <SCORE.INTER.ROT>
7

>  <SCORE.INTER.VDW>
-43.9503

>  <SCORE.INTER.norm>
-0.994882

>  <SCORE.INTRA>
1.35999

>  <SCORE.INTRA.DIHEDRAL>
11.8507

>  <SCORE.INTRA.DIHEDRAL.0>
18.358

>  <SCORE.INTRA.POLAR>
0

>  <SCORE.INTRA.POLAR.0>
0

>  <SCORE.INTRA.REPUL>
0

>  <SCORE.INTRA.REPUL.0>
0

>  <SCORE.INTRA.VDW>
-1.01014

>  <SCORE.INTRA.VDW.0>
-1.94569

>  <SCORE.INTRA.norm>
0.0399997

>  <SCORE.RESTR>
0.352321

>  <SCORE.RESTR.CAVITY>
0.352321

>  <SCORE.RESTR.norm>
0.0103624

>  <SCORE.SYSTEM>
-0.765122

>  <SCORE.SYSTEM.CONST>
0

>  <SCORE.SYSTEM.DIHEDRAL>
0.8018

>  <SCORE.SYSTEM.VDW>
-1.16602

>  <SCORE.SYSTEM.norm>
-0.0225036

>  <SCORE.heavy>
34

>  <SCORE.norm>
-0.967023

$$$$
RAL.pdb
  rDOCK(R)          3D
libRbt.so/2013.1/901 2013/11/27
 36 40  0  0  0  0  0  0  0  0999 V2000
   32.9104   -1.5784   27.5050 C   0  0  0  0  0  0
   34.0494   -1.4070   28.2488 C   0  0  0  0  0  0
   34.0312   -0.8683   29.5051 C   0  0  0  0  0  0
   35.2363   -0.7782   30.1560 O   0  0  0  0  0  0
   32.8080   -0.4906   30.0706 C   0  0  0  0  0  0
   31.6661   -0.6959   29.3361 C   0  0  0  0  0  0
   30.0995   -0.3158   29.7001 S   0  0  0  0  0  0
   29.3797   -0.8995   28.2891 C   0  0  0  0  0  0
   27.9279   -0.7576   27.9827 C   0  0  0  0  0  0
   27.5192    0.5169   27.6411 C   0  0  0  0  0  0
   26.2006    0.7042   27.2595 C   0  0  0  0  0  0
   25.2961   -0.3394   27.2552 C   0  0  0  0  0  0
   23.9903   -0.0547   26.8517 O   0  0  0  0  0  0
   25.7167   -1.6191   27.5520 C   0  0  0  0  0  0
   27.0451   -1.8002   27.9173 C   0  0  0  0  0  0
   31.7164   -1.2437   28.0225 C   0  0  0  0  0  0
   30.3982   -1.3324   27.4141 C   0  0  0  0  0  0
   30.2058   -1.8010   26.1284 C   0  0  0  0  0  0
   29.0912   -1.6888   25.6028 O   0  0  0  0  0  0
   31.2687   -2.4473   25.3509 C   0  0  0  0  0  0
   32.1148   -1.6986   24.5576 C   0  0  0  0  0  0
   33.1159   -2.2774   23.8018 C   0  0  0  0  0  0
   33.2530   -3.6642   23.8218 C   0  0  0  0  0  0
   32.4159   -4.4240   24.6193 C   0  0  0  0  0  0
   31.4380   -3.8152   25.3881 C   0  0  0  0  0  0
   34.1481   -4.4498   23.1576 O   0  0  0  0  0  0
   35.2125   -3.7810   22.4982 C   0  0  0  0  0  0
   34.6967   -3.0316   21.2987 C   0  0  0  0  0  0
   35.4260   -2.5321   20.1489 N   0  0  0  0  0  0
   35.7797   -1.1181   20.3872 C   0  0  0  0  0  0
   36.6907   -0.5132   19.3001 C   0  0  0  0  0  0
   35.9001   -0.5616   17.9826 C   0  0  0  0  0  0
   35.7243   -2.0867   17.7074 C   0  0  0  0  0  0
   34.8076   -2.6389   18.8130 C   0  0  0  0  0  0
   35.3504   -1.1900   30.9899 H   0  0  0  0  0  0
   23.4359   -0.7426   26.5394 H   0  0  0  0  0  0
  1  2  2  0  0  0
  1 16  1  0  0  0
  2  3  1  0  0  0
  3  4  1  0  0  0
  3  5  2  0  0  0
  4 35  1  0  0  0
  5  6  1  0  0  0
  6  7  1  0  0  0
  6 16  2  0  0  0
  7  8  1  0  0  0
  8  9  1  0  0  0
  8 17  2  0  0  0
  9 10  2  0  0  0
  9 15  1  0  0  0
 10 11  1  0  0  0
 11 12  2  0  0  0
 12 13  1  0  0  0
 12 14  1  0  0  0
 13 36  1  0  0  0
 14 15  2  0  0  0
 16 17  1  0  0  0
 17 18  1  0  0  0
 18 19  2  0  0  0
 18 20  1  0  0  0
 20 21  2  0  0  0
 20 25  1  0  0  0
 21 22  1  0  0  0
 22 23  2  0  0  0
 23 24  1  0  0  0
 23 26  1  0  0  0
 24 25  2  0  0  0
 26 27  1  0  0  0
 27 28  1  0  0  0
 28 29  1  0  0  0
 29 30  1  0  0  0
 29 34  1  0  0  0
 30 31  1  0  0  0
 31 32  1  0  0  0
 32 33  1  0  0  0
 33 34  1  0  0  0
M  END
>  <CHROM.0>
-45.64582239,-60.56480275,97.40900640

>  <CHROM.1>
-122.72455741,72.79442771,158.06537928,9.99162886,-89.15223059,9.91391355
-70.56633654,-161.09236043,-94.89512484,31.67454561,-1.59069339,25.41307878
-2.28883709,0.10735018,-1.67464969

>  <FORMUL>
      RAL    C28 H27 N1 O4 S1

>  <HET>
 RAL  A 600      34

>  <HETNAM>
     RAL RALOXIFENE

>  <Name>
RAL.pdb

>  <RI>
0

>  <Rbt.Current_Directory>
/home/malgorzata/Desktop/rDOCK_IFD/Wyniki/6_estrogen_receptor

>  <Rbt.Executable>
rbdock ($Id: //depot/dev/client3/rdock/2013.1/src/exe/rbdock.cxx#4 $)

>  <Rbt.Library>
libRbt.so (2013.1, Build901 2013/11/27)

>  <Rbt.Parameter_File>
/home/malgorzata/Desktop/rDock_2013.1_src/data/scripts/soft_docking.prm

>  <Rbt.Receptor>
cavity.prm

>  <SCORE>
-32.5048

>  <SCORE.INTER>
-34.7476

>  <SCORE.INTER.CONST>
1

>  <SCORE.INTER.POLAR>
-1.66441

>  <SCORE.INTER.REPUL>
0.0732476

>  <SCORE.INTER.ROT>
7

>  <SCORE.INTER.VDW>
-41.8549

>  <SCORE.INTER.norm>
-1.02199

>  <SCORE.INTRA>
2.97194

>  <SCORE.INTRA.DIHEDRAL>
14.0699

>  <SCORE.INTRA.DIHEDRAL.0>
18.358

>  <SCORE.INTRA.POLAR>
0

>  <SCORE.INTRA.POLAR.0>
0

>  <SCORE.INTRA.REPUL>
0

>  <SCORE.INTRA.REPUL.0>
0

>  <SCORE.INTRA.VDW>
0.157962

>  <SCORE.INTRA.VDW.0>
-1.94569

>  <SCORE.INTRA.norm>
0.0874099

>  <SCORE.RESTR>
0

>  <SCORE.RESTR.CAVITY>
0

>  <SCORE.RESTR.norm>
0

>  <SCORE.SYSTEM>
-0.72908

>  <SCORE.SYSTEM.CONST>
0

>  <SCORE.SYSTEM.DIHEDRAL>
0.80212

>  <SCORE.SYSTEM.VDW>
-1.13014

>  <SCORE.SYSTEM.norm>
-0.0214435

>  <SCORE.heavy>
34

>  <SCORE.norm>
-0.956023

$$$$
RAL.pdb
  rDOCK(R)          3D
libRbt.so/2013.1/901 2013/11/27
 36 40  0  0  0  0  0  0  0  0999 V2000
   26.2001   -2.2255   26.3451 C   0  0  0  0  0  0
   24.8599   -1.9748   26.2007 C   0  0  0  0  0  0
   24.2795   -0.8153   26.6336 C   0  0  0  0  0  0
   22.9339   -0.6743   26.4024 O   0  0  0  0  0  0
   25.0763    0.1676   27.2318 C   0  0  0  0  0  0
   26.4236   -0.0730   27.3434 C   0  0  0  0  0  0
   27.6032    0.8544   28.0359 S   0  0  0  0  0  0
   28.9140   -0.1661   27.7362 C   0  0  0  0  0  0
   30.2975    0.1016   28.2221 C   0  0  0  0  0  0
   30.7984    1.3518   27.9154 C   0  0  0  0  0  0
   32.0446    1.7002   28.4106 C   0  0  0  0  0  0
   32.7960    0.8157   29.1590 C   0  0  0  0  0  0
   34.0381    1.2579   29.6180 O   0  0  0  0  0  0
   32.2750   -0.4144   29.5028 C   0  0  0  0  0  0
   31.0173   -0.7486   29.0156 C   0  0  0  0  0  0
   26.9987   -1.2975   26.8987 C   0  0  0  0  0  0
   28.4296   -1.3562   27.1534 C   0  0  0  0  0  0
   29.1934   -2.4638   26.8380 C   0  0  0  0  0  0
   29.0452   -3.5071   27.4866 O   0  0  0  0  0  0
   30.1957   -2.4588   25.7668 C   0  0  0  0  0  0
   31.3007   -3.2833   25.8333 C   0  0  0  0  0  0
   32.2702   -3.2923   24.8492 C   0  0  0  0  0  0
   32.1384   -2.4181   23.7717 C   0  0  0  0  0  0
   31.0310   -1.5929   23.6905 C   0  0  0  0  0  0
   30.0604   -1.6239   24.6777 C   0  0  0  0  0  0
   32.9638   -2.2424   22.7006 O   0  0  0  0  0  0
   32.8824   -3.2155   21.6703 C   0  0  0  0  0  0
   33.5142   -2.6946   20.4070 C   0  0  0  0  0  0
   34.6193   -1.7683   20.2514 N   0  0  0  0  0  0
   34.3543   -0.9030   19.0842 C   0  0  0  0  0  0
   35.3861    0.2282   18.9016 C   0  0  0  0  0  0
   36.7455   -0.4474   18.6592 C   0  0  0  0  0  0
   37.0382   -1.1908   19.9987 C   0  0  0  0  0  0
   35.9879   -2.3075   20.1303 C   0  0  0  0  0  0
   22.6333   -0.1286   25.7025 H   0  0  0  0  0  0
   34.3546    2.1046   29.3709 H   0  0  0  0  0  0
  1  2  2  0  0  0
  1 16  1  0  0  0
  2  3  1  0  0  0
  3  4  1  0  0  0
  3  5  2  0  0  0
  4 35  1  0  0  0
  5  6  1  0  0  0
  6  7  1  0  0  0
  6 16  2  0  0  0
  7  8  1  0  0  0
  8  9  1  0  0  0
  8 17  2  0  0  0
  9 10  2  0  0  0
  9 15  1  0  0  0
 10 11  1  0  0  0
 11 12  2  0  0  0
 12 13  1  0  0  0
 12 14  1  0  0  0
 13 36  1  0  0  0
 14 15  2  0  0  0
 16 17  1  0  0  0
 17 18  1  0  0  0
 18 19  2  0  0  0
 18 20  1  0  0  0
 20 21  2  0  0  0
 20 25  1  0  0  0
 21 22  1  0  0  0
 22 23  2  0  0  0
 23 24  1  0  0  0
 23 26  1  0  0  0
 24 25  2  0  0  0
 26 27  1  0  0  0
 27 28  1  0  0  0
 28 29  1  0  0  0
 29 30  1  0  0  0
 29 34  1  0  0  0
 30 31  1  0  0  0
 31 32  1  0  0  0
 32 33  1  0  0  0
 33 34  1  0  0  0
M  END
>  <CHROM.0>
-34.46998217,-60.56480275,45.80703142

>  <CHROM.1>
-102.59268917,-52.07065715,-3.77829681,110.73724858,151.27042706,77.90374195
163.05863389,31.08519599,-143.08421153,30.65071313,-1.06175618,25.22337374
2.42252554,0.16513106,1.25348555

>  <FORMUL>
      RAL    C28 H27 N1 O4 S1

>  <HET>
 RAL  A 600      34

>  <HETNAM>
     RAL RALOXIFENE

>  <Name>
RAL.pdb

>  <RI>
0

>  <Rbt.Current_Directory>
/home/malgorzata/Desktop/rDOCK_IFD/Wyniki/6_estrogen_receptor

>  <Rbt.Executable>
rbdock ($Id: //depot/dev/client3/rdock/2013.1/src/exe/rbdock.cxx#4 $)

>  <Rbt.Library>
libRbt.so (2013.1, Build901 2013/11/27)

>  <Rbt.Parameter_File>
/home/malgorzata/Desktop/rDock_2013.1_src/data/scripts/soft_docking.prm

>  <Rbt.Receptor>
cavity.prm

>  <SCORE>
-33.9941

>  <SCORE.INTER>
-34.4741

>  <SCORE.INTER.CONST>
1

>  <SCORE.INTER.POLAR>
-1.02217

>  <SCORE.INTER.REPUL>
0.0395737

>  <SCORE.INTER.ROT>
7

>  <SCORE.INTER.VDW>
-43.5965

>  <SCORE.INTER.norm>
-1.01394

>  <SCORE.INTRA>
1.26123

>  <SCORE.INTRA.DIHEDRAL>
16.4009

>  <SCORE.INTRA.DIHEDRAL.0>
18.358

>  <SCORE.INTRA.POLAR>
0

>  <SCORE.INTRA.POLAR.0>
0

>  <SCORE.INTRA.REPUL>
0

>  <SCORE.INTRA.REPUL.0>
0

>  <SCORE.INTRA.VDW>
-2.01896

>  <SCORE.INTRA.VDW.0>
-1.94569

>  <SCORE.INTRA.norm>
0.0370949

>  <SCORE.RESTR>
0

>  <SCORE.RESTR.CAVITY>
0

>  <SCORE.RESTR.norm>
0

>  <SCORE.SYSTEM>
-0.78122

>  <SCORE.SYSTEM.CONST>
0

>  <SCORE.SYSTEM.DIHEDRAL>
0.806117

>  <SCORE.SYSTEM.VDW>
-1.18428

>  <SCORE.SYSTEM.norm>
-0.0229771

>  <SCORE.heavy>
34

>  <SCORE.norm>
-0.999825

$$$$
RAL.pdb
  rDOCK(R)          3D
libRbt.so/2013.1/901 2013/11/27
 36 40  0  0  0  0  0  0  0  0999 V2000
   30.4496   -2.8468   20.8566 C   0  0  0  0  0  0
   29.2834   -3.2081   20.2326 C   0  0  0  0  0  0
   29.2650   -3.8422   19.0217 C   0  0  0  0  0  0
   28.0327   -4.1766   18.5182 O   0  0  0  0  0  0
   30.4763   -4.1555   18.3943 C   0  0  0  0  0  0
   31.6423   -3.8228   19.0386 C   0  0  0  0  0  0
   33.2077   -4.0108   18.5432 S   0  0  0  0  0  0
   33.9667   -3.3539   19.9004 C   0  0  0  0  0  0
   35.4408   -3.1628   20.0110 C   0  0  0  0  0  0
   35.9656   -3.3453   21.2756 C   0  0  0  0  0  0
   37.3399   -3.2690   21.4343 C   0  0  0  0  0  0
   38.1732   -2.9782   20.3721 C   0  0  0  0  0  0
   39.5446   -2.9264   20.6283 O   0  0  0  0  0  0
   37.6518   -2.8420   19.1024 C   0  0  0  0  0  0
   36.2739   -2.9369   18.9501 C   0  0  0  0  0  0
   31.6314   -3.1473   20.2923 C   0  0  0  0  0  0
   32.9739   -2.8552   20.7700 C   0  0  0  0  0  0
   33.2088   -2.1740   21.9491 C   0  0  0  0  0  0
   34.0747   -1.2904   21.9766 O   0  0  0  0  0  0
   32.4823   -2.4610   23.1908 C   0  0  0  0  0  0
   31.3837   -1.7080   23.5534 C   0  0  0  0  0  0
   30.6866   -1.9425   24.7228 C   0  0  0  0  0  0
   31.1283   -2.9538   25.5741 C   0  0  0  0  0  0
   32.2233   -3.7202   25.2171 C   0  0  0  0  0  0
   32.8873   -3.4810   24.0256 C   0  0  0  0  0  0
   30.6148   -3.3554   26.7718 O   0  0  0  0  0  0
   29.2334   -3.6816   26.7927 C   0  0  0  0  0  0
   28.5577   -3.0231   27.9658 C   0  0  0  0  0  0
   28.1605   -1.6384   28.1339 N   0  0  0  0  0  0
   27.5420   -1.4788   29.4655 C   0  0  0  0  0  0
   27.2125   -0.0165   29.8270 C   0  0  0  0  0  0
   26.1852    0.4743   28.7941 C   0  0  0  0  0  0
   26.9686    0.4483   27.4456 C   0  0  0  0  0  0
   27.2680   -1.0275   27.1295 C   0  0  0  0  0  0
   27.3764   -4.5331   19.0840 H   0  0  0  0  0  0
   40.0249   -3.7183   20.7702 H   0  0  0  0  0  0
  1  2  2  0  0  0
  1 16  1  0  0  0
  2  3  1  0  0  0
  3  4  1  0  0  0
  3  5  2  0  0  0
  4 35  1  0  0  0
  5  6  1  0  0  0
  6  7  1  0  0  0
  6 16  2  0  0  0
  7  8  1  0  0  0
  8  9  1  0  0  0
  8 17  2  0  0  0
  9 10  2  0  0  0
  9 15  1  0  0  0
 10 11  1  0  0  0
 11 12  2  0  0  0
 12 13  1  0  0  0
 12 14  1  0  0  0
 13 36  1  0  0  0
 14 15  2  0  0  0
 16 17  1  0  0  0
 17 18  1  0  0  0
 18 19  2  0  0  0
 18 20  1  0  0  0
 20 21  2  0  0  0
 20 25  1  0  0  0
 21 22  1  0  0  0
 22 23  2  0  0  0
 23 24  1  0  0  0
 23 26  1  0  0  0
 24 25  2  0  0  0
 26 27  1  0  0  0
 27 28  1  0  0  0
 28 29  1  0  0  0
 29 30  1  0  0  0
 29 34  1  0  0  0
 30 31  1  0  0  0
 31 32  1  0  0  0
 32 33  1  0  0  0
 33 34  1  0  0  0
M  END
>  <CHROM.0>
-70.64137314,-60.56480275,37.04885119

>  <CHROM.1>
-42.07006252,-145.31514133,73.78824268,43.98409262,-96.48773135,53.30799821
-132.73958256,76.44524144,-179.57372039,31.79880461,-2.68001843,22.85407294
0.84871286,-0.01392757,-1.81845658

>  <FORMUL>
      RAL    C28 H27 N1 O4 S1

>  <HET>
 RAL  A 600      34

>  <HETNAM>
     RAL RALOXIFENE

>  <Name>
RAL.pdb

>  <RI>
0

>  <Rbt.Current_Directory>
/home/malgorzata/Desktop/rDOCK_IFD/Wyniki/6_estrogen_receptor

>  <Rbt.Executable>
rbdock ($Id: //depot/dev/client3/rdock/2013.1/src/exe/rbdock.cxx#4 $)

>  <Rbt.Library>
libRbt.so (2013.1, Build901 2013/11/27)

>  <Rbt.Parameter_File>
/home/malgorzata/Desktop/rDock_2013.1_src/data/scripts/soft_docking.prm

>  <Rbt.Receptor>
cavity.prm

>  <SCORE>
-25.4053

>  <SCORE.INTER>
-27.3679

>  <SCORE.INTER.CONST>
1

>  <SCORE.INTER.POLAR>
-0.407226

>  <SCORE.INTER.REPUL>
0

>  <SCORE.INTER.ROT>
7

>  <SCORE.INTER.VDW>
-38.3834

>  <SCORE.INTER.norm>
-0.804939

>  <SCORE.INTRA>
2.69322

>  <SCORE.INTRA.DIHEDRAL>
21.8285

>  <SCORE.INTRA.DIHEDRAL.0>
18.358

>  <SCORE.INTRA.POLAR>
0

>  <SCORE.INTRA.POLAR.0>
0

>  <SCORE.INTRA.REPUL>
0

>  <SCORE.INTRA.REPUL.0>
0

>  <SCORE.INTRA.VDW>
-1.67249

>  <SCORE.INTRA.VDW.0>
-1.94569

>  <SCORE.INTRA.norm>
0.0792123

>  <SCORE.RESTR>
0.277811

>  <SCORE.RESTR.CAVITY>
0.277811

>  <SCORE.RESTR.norm>
0.00817092

>  <SCORE.SYSTEM>
-1.0084

>  <SCORE.SYSTEM.CONST>
0

>  <SCORE.SYSTEM.DIHEDRAL>
0.806626

>  <SCORE.SYSTEM.VDW>
-1.41172

>  <SCORE.SYSTEM.norm>
-0.0296589

>  <SCORE.heavy>
34

>  <SCORE.norm>
-0.747215

$$$$
RAL.pdb
  rDOCK(R)          3D
libRbt.so/2013.1/901 2013/11/27
 36 40  0  0  0  0  0  0  0  0999 V2000
   27.4421   -1.6657   26.6941 C   0  0  0  0  0  0
   26.2419   -1.3015   27.2478 C   0  0  0  0  0  0
   26.1237   -0.2569   28.1217 C   0  0  0  0  0  0
   24.8613    0.0240   28.5815 O   0  0  0  0  0  0
   27.2607    0.4871   28.4572 C   0  0  0  0  0  0
   28.4545    0.1407   27.8740 C   0  0  0  0  0  0
   29.9604    0.7827   28.1003 S   0  0  0  0  0  0
   30.8049   -0.2085   27.0260 C   0  0  0  0  0  0
   32.2841   -0.1629   26.8484 C   0  0  0  0  0  0
   32.7551    0.8946   26.0948 C   0  0  0  0  0  0
   34.1256    1.0481   25.9619 C   0  0  0  0  0  0
   35.0099    0.1514   26.5286 C   0  0  0  0  0  0
   36.3727    0.3908   26.3440 O   0  0  0  0  0  0
   34.5394   -0.8768   27.3187 C   0  0  0  0  0  0
   33.1638   -1.0130   27.4601 C   0  0  0  0  0  0
   28.5514   -0.9633   26.9796 C   0  0  0  0  0  0
   29.9137   -1.1763   26.5163 C   0  0  0  0  0  0
   30.2541   -2.2125   25.6678 C   0  0  0  0  0  0
   29.7537   -3.3303   25.8448 O   0  0  0  0  0  0
   31.2042   -2.0539   24.5613 C   0  0  0  0  0  0
   30.8678   -1.3138   23.4456 C   0  0  0  0  0  0
   31.7332   -1.1572   22.3804 C   0  0  0  0  0  0
   32.9729   -1.7927   22.4259 C   0  0  0  0  0  0
   33.3239   -2.5303   23.5424 C   0  0  0  0  0  0
   32.4474   -2.6484   24.6080 C   0  0  0  0  0  0
   33.9741   -1.7926   21.5002 O   0  0  0  0  0  0
   33.7281   -2.5082   20.2992 C   0  0  0  0  0  0
   34.4673   -1.8740   19.1512 C   0  0  0  0  0  0
   35.6992   -1.1087   19.1674 N   0  0  0  0  0  0
   35.3658    0.3301   19.1596 C   0  0  0  0  0  0
   36.5896    1.2530   19.3280 C   0  0  0  0  0  0
   37.5054    0.9986   18.1198 C   0  0  0  0  0  0
   37.9581   -0.4832   18.2986 C   0  0  0  0  0  0
   36.7061   -1.3592   18.1176 C   0  0  0  0  0  0
   24.1869    0.2688   27.9789 H   0  0  0  0  0  0
   36.6681    1.2414   26.0844 H   0  0  0  0  0  0
  1  2  2  0  0  0
  1 16  1  0  0  0
  2  3  1  0  0  0
  3  4  1  0  0  0
  3  5  2  0  0  0
  4 35  1  0  0  0
  5  6  1  0  0  0
  6  7  1  0  0  0
  6 16  2  0  0  0
  7  8  1  0  0  0
  8  9  1  0  0  0
  8 17  2  0  0  0
  9 10  2  0  0  0
  9 15  1  0  0  0
 10 11  1  0  0  0
 11 12  2  0  0  0
 12 13  1  0  0  0
 12 14  1  0  0  0
 13 36  1  0  0  0
 14 15  2  0  0  0
 16 17  1  0  0  0
 17 18  1  0  0  0
 18 19  2  0  0  0
 18 20  1  0  0  0
 20 21  2  0  0  0
 20 25  1  0  0  0
 21 22  1  0  0  0
 22 23  2  0  0  0
 23 24  1  0  0  0
 23 26  1  0  0  0
 24 25  2  0  0  0
 26 27  1  0  0  0
 27 28  1  0  0  0
 28 29  1  0  0  0
 29 30  1  0  0  0
 29 34  1  0  0  0
 30 31  1  0  0  0
 31 32  1  0  0  0
 32 33  1  0  0  0
 33 34  1  0  0  0
M  END
>  <CHROM.0>
-160.69720538,-60.56480275,-121.62987586

>  <CHROM.1>
-61.05062357,-77.07941705,18.13784690,139.40482521,-70.46399982,-70.30489135
149.51840314,28.05903794,-97.84164118,32.11228051,-0.73702016,24.40716891
2.38061184,0.26758191,1.28453215

>  <FORMUL>
      RAL    C28 H27 N1 O4 S1

>  <HET>
 RAL  A 600      34

>  <HETNAM>
     RAL RALOXIFENE

>  <Name>
RAL.pdb

>  <RI>
0

>  <Rbt.Current_Directory>
/home/malgorzata/Desktop/rDOCK_IFD/Wyniki/6_estrogen_receptor

>  <Rbt.Executable>
rbdock ($Id: //depot/dev/client3/rdock/2013.1/src/exe/rbdock.cxx#4 $)

>  <Rbt.Library>
libRbt.so (2013.1, Build901 2013/11/27)

>  <Rbt.Parameter_File>
/home/malgorzata/Desktop/rDock_2013.1_src/data/scripts/soft_docking.prm

>  <Rbt.Receptor>
cavity.prm

>  <SCORE>
-32.6466

>  <SCORE.INTER>
-34.4832

>  <SCORE.INTER.CONST>
1

>  <SCORE.INTER.POLAR>
-2.07325

>  <SCORE.INTER.REPUL>
0

>  <SCORE.INTER.ROT>
7

>  <SCORE.INTER.VDW>
-39.8342

>  <SCORE.INTER.norm>
-1.01421

>  <SCORE.INTRA>
1.89639

>  <SCORE.INTRA.DIHEDRAL>
26.6175

>  <SCORE.INTRA.DIHEDRAL.0>
18.358

>  <SCORE.INTRA.POLAR>
0

>  <SCORE.INTRA.POLAR.0>
0

>  <SCORE.INTRA.REPUL>
0

>  <SCORE.INTRA.REPUL.0>
0

>  <SCORE.INTRA.VDW>
-3.42712

>  <SCORE.INTRA.VDW.0>
-1.94569

>  <SCORE.INTRA.norm>
0.0557762

>  <SCORE.RESTR>
0.55856

>  <SCORE.RESTR.CAVITY>
0.55856

>  <SCORE.RESTR.norm>
0.0164282

>  <SCORE.SYSTEM>
-0.618309

>  <SCORE.SYSTEM.CONST>
0

>  <SCORE.SYSTEM.DIHEDRAL>
0.804236

>  <SCORE.SYSTEM.VDW>
-1.02043

>  <SCORE.SYSTEM.norm>
-0.0181856

>  <SCORE.heavy>
34

>  <SCORE.norm>
-0.960193

$$$$
RAL.pdb
  rDOCK(R)          3D
libRbt.so/2013.1/901 2013/11/27
 36 40  0  0  0  0  0  0  0  0999 V2000
   27.1182   -1.6304   26.4597 C   0  0  0  0  0  0
   25.8047   -1.2372   26.4524 C   0  0  0  0  0  0
   25.3730   -0.1085   27.0914 C   0  0  0  0  0  0
   24.0378    0.1904   26.9829 O   0  0  0  0  0  0
   26.3005    0.6933   27.7665 C   0  0  0  0  0  0
   27.6201    0.3146   27.7423 C   0  0  0  0  0  0
   28.9275    1.0120   28.4741 S   0  0  0  0  0  0
   30.1066   -0.0682   27.9330 C   0  0  0  0  0  0
   31.5364   -0.0073   28.3497 C   0  0  0  0  0  0
   31.8969    1.1236   29.0563 C   0  0  0  0  0  0
   33.1888    1.2061   29.5500 C   0  0  0  0  0  0
   34.1155    0.2096   29.3149 C   0  0  0  0  0  0
   35.3912    0.3794   29.8561 O   0  0  0  0  0  0
   33.7408   -0.9389   28.6491 C   0  0  0  0  0  0
   32.4383   -1.0201   28.1722 C   0  0  0  0  0  0
   28.0392   -0.8758   27.0825 C   0  0  0  0  0  0
   29.4689   -1.1053   27.2199 C   0  0  0  0  0  0
   30.0949   -2.2178   26.6909 C   0  0  0  0  0  0
   29.8970   -3.3262   27.2042 O   0  0  0  0  0  0
   31.0069   -2.1461   25.5440 C   0  0  0  0  0  0
   30.9014   -1.1223   24.6241 C   0  0  0  0  0  0
   31.7343   -1.0339   23.5255 C   0  0  0  0  0  0
   32.6906   -2.0286   23.3286 C   0  0  0  0  0  0
   32.8106   -3.0551   24.2484 C   0  0  0  0  0  0
   31.9802   -3.1044   25.3555 C   0  0  0  0  0  0
   33.6035   -2.1574   22.3240 O   0  0  0  0  0  0
   33.2130   -2.9438   21.2086 C   0  0  0  0  0  0
   33.8236   -4.3171   21.2968 C   0  0  0  0  0  0
   35.2181   -4.7056   21.2090 N   0  0  0  0  0  0
   35.9882   -3.9454   22.2141 C   0  0  0  0  0  0
   37.4639   -4.3787   22.3250 C   0  0  0  0  0  0
   38.1113   -4.0991   20.9590 C   0  0  0  0  0  0
   37.3689   -5.0677   19.9877 C   0  0  0  0  0  0
   35.9080   -4.5910   19.9092 C   0  0  0  0  0  0
   23.7473    0.8129   26.3457 H   0  0  0  0  0  0
   35.6056    1.1700   30.3112 H   0  0  0  0  0  0
  1  2  2  0  0  0
  1 16  1  0  0  0
  2  3  1  0  0  0
  3  4  1  0  0  0
  3  5  2  0  0  0
  4 35  1  0  0  0
  5  6  1  0  0  0
  6  7  1  0  0  0
  6 16  2  0  0  0
  7  8  1  0  0  0
  8  9  1  0  0  0
  8 17  2  0  0  0
  9 10  2  0  0  0
  9 15  1  0  0  0
 10 11  1  0  0  0
 11 12  2  0  0  0
 12 13  1  0  0  0
 12 14  1  0  0  0
 13 36  1  0  0  0
 14 15  2  0  0  0
 16 17  1  0  0  0
 17 18  1  0  0  0
 18 19  2  0  0  0
 18 20  1  0  0  0
 20 21  2  0  0  0
 20 25  1  0  0  0
 21 22  1  0  0  0
 22 23  2  0  0  0
 23 24  1  0  0  0
 23 26  1  0  0  0
 24 25  2  0  0  0
 26 27  1  0  0  0
 27 28  1  0  0  0
 28 29  1  0  0  0
 29 30  1  0  0  0
 29 34  1  0  0  0
 30 31  1  0  0  0
 31 32  1  0  0  0
 32 33  1  0  0  0
 33 34  1  0  0  0
M  END
>  <CHROM.0>
22.26464906,-60.56480275,-103.28364899

>  <CHROM.1>
-97.69945275,-9.65529358,-3.73259719,109.47379824,-25.51739337,-92.93927003
-100.93748266,-66.68438823,54.97976576,31.63855287,-1.58346130,25.58290627
2.37897243,-0.06759858,1.07601440

>  <FORMUL>
      RAL    C28 H27 N1 O4 S1

>  <HET>
 RAL  A 600      34

>  <HETNAM>
     RAL RALOXIFENE

>  <Name>
RAL.pdb

>  <RI>
0

>  <Rbt.Current_Directory>
/home/malgorzata/Desktop/rDOCK_IFD/Wyniki/6_estrogen_receptor

>  <Rbt.Executable>
rbdock ($Id: //depot/dev/client3/rdock/2013.1/src/exe/rbdock.cxx#4 $)

>  <Rbt.Library>
libRbt.so (2013.1, Build901 2013/11/27)

>  <Rbt.Parameter_File>
/home/malgorzata/Desktop/rDock_2013.1_src/data/scripts/soft_docking.prm

>  <Rbt.Receptor>
cavity.prm

>  <SCORE>
-35.8314

>  <SCORE.INTER>
-36.6889

>  <SCORE.INTER.CONST>
1

>  <SCORE.INTER.POLAR>
-1.76094

>  <SCORE.INTER.REPUL>
0.0829379

>  <SCORE.INTER.ROT>
7

>  <SCORE.INTER.VDW>
-43.5164

>  <SCORE.INTER.norm>
-1.07909

>  <SCORE.INTRA>
1.15697

>  <SCORE.INTRA.DIHEDRAL>
9.65602

>  <SCORE.INTRA.DIHEDRAL.0>
18.358

>  <SCORE.INTRA.POLAR>
0

>  <SCORE.INTRA.POLAR.0>
0

>  <SCORE.INTRA.REPUL>
0

>  <SCORE.INTRA.REPUL.0>
0

>  <SCORE.INTRA.VDW>
-0.774234

>  <SCORE.INTRA.VDW.0>
-1.94569

>  <SCORE.INTRA.norm>
0.0340285

>  <SCORE.RESTR>
0.0760098

>  <SCORE.RESTR.CAVITY>
0.0760098

>  <SCORE.RESTR.norm>
0.00223558

>  <SCORE.SYSTEM>
-0.375434

>  <SCORE.SYSTEM.CONST>
0

>  <SCORE.SYSTEM.DIHEDRAL>
0.806196

>  <SCORE.SYSTEM.VDW>
-0.778532

>  <SCORE.SYSTEM.norm>
-0.0110422

>  <SCORE.heavy>
34

>  <SCORE.norm>
-1.05386

$$$$
