@<TRIPOS>MOLECULE
pose8.pdb
 61 65 0 0 0
SMALL
GASTEIGER

@<TRIPOS>ATOM
      1  C1        33.5700   -2.0300   27.5910 C.ar    1  LIG1       -0.0494
      2  C2        34.7630   -1.6530   28.1500 C.ar    1  LIG1       -0.0195
      3  C3        34.8550   -0.6560   29.0810 C.ar    1  LIG1        0.1180
      4  O1        36.1050   -0.3950   29.5850 O.3     1  LIG1       -0.5067
      5  C4        33.6920   -0.0010   29.5000 C.ar    1  LIG1       -0.0058
      6  C5        32.4940   -0.4050   28.9630 C.ar    1  LIG1        0.0241
      7  S1        30.9740    0.1950   29.2130 S.2     1  LIG1       -0.0874
      8  C6        30.1340   -0.8550   28.1920 C.ar    1  LIG1        0.0313
      9  C7        28.6730   -0.7500   27.9200 C.ar    1  LIG1       -0.0104
     10  C8        28.3080    0.2420   27.0310 C.ar    1  LIG1       -0.0501
     11  C9        26.9760    0.3410   26.6660 C.ar    1  LIG1       -0.0196
     12  C10       26.0180   -0.4980   27.2000 C.ar    1  LIG1        0.1169
     13  O2        24.7010   -0.3260   26.7680 O.3     1  LIG1       -0.5068
     14  C11       26.3900   -1.5170   28.0520 C.ar    1  LIG1       -0.0196
     15  C12       27.7320   -1.6190   28.3990 C.ar    1  LIG1       -0.0501
     16  C13       32.4300   -1.4350   27.9820 C.ar    1  LIG1        0.0008
     17  C14       31.0700   -1.6710   27.5220 C.ar    1  LIG1        0.0447
     18  C15       30.7700   -2.6010   26.5450 C.2     1  LIG1        0.1948
     19  O3        29.8500   -3.4060   26.7380 O.2     1  LIG1       -0.2866
     20  C16       31.5070   -2.6920   25.2800 C.ar    1  LIG1        0.0225
     21  C17       32.1410   -1.5840   24.7540 C.ar    1  LIG1       -0.0475
     22  C18       32.8310   -1.6320   23.5580 C.ar    1  LIG1       -0.0193
     23  C19       32.8610   -2.8320   22.8500 C.ar    1  LIG1        0.1206
     24  C20       32.2360   -3.9510   23.3720 C.ar    1  LIG1       -0.0193
     25  C21       31.5740   -3.8810   24.5860 C.ar    1  LIG1       -0.0475
     26  O4        33.4600   -3.1130   21.6580 O.3     1  LIG1       -0.4907
     27  C22       34.7670   -2.5910   21.4660 C.3     1  LIG1        0.1022
     28  C23       35.1560   -2.6750   20.0150 C.3     1  LIG1        0.0331
     29  N1        36.4770   -2.7820   19.4270 N.3     1  LIG1       -0.2991
     30  C24       37.2420   -1.5600   19.7490 C.3     1  LIG1       -0.0010
     31  C25       38.7180   -1.6150   19.3080 C.3     1  LIG1       -0.0402
     32  C26       38.7170   -1.7520   17.7760 C.3     1  LIG1       -0.0507
     33  C27       38.0590   -3.1440   17.5250 C.3     1  LIG1       -0.0402
     34  C28       36.5920   -3.0340   17.9770 C.3     1  LIG1       -0.0010
     35  H1        36.4550    0.4740   29.5430 H       1  LIG1        0.2921
     36  H2        24.1950    0.3970   27.0840 H       1  LIG1        0.2921
     37 H          33.5469   -2.7693   26.8713 H       1  LIG1        0.0625
     38 H          35.6245   -2.1400   27.8572 H       1  LIG1        0.0654
     39 H          33.7329    0.7633   30.1922 H       1  LIG1        0.0665
     40 H          29.0108    0.8935   26.6481 H       1  LIG1        0.0625
     41 H          26.6929    1.0578   25.9796 H       1  LIG1        0.0654
     42 H          25.6933   -2.1832   28.4205 H       1  LIG1        0.0654
     43 H          28.0274   -2.3738   29.0378 H       1  LIG1        0.0625
     44 H          32.0981   -0.6916   25.2706 H       1  LIG1        0.0626
     45 H          33.3148   -0.7954   23.1959 H       1  LIG1        0.0654
     46 H          32.2635   -4.8428   22.8534 H       1  LIG1        0.0654
     47 H          31.1270   -4.7261   24.9745 H       1  LIG1        0.0626
     48 H          35.4621   -3.1563   22.0509 H       1  LIG1        0.0709
     49 H          34.7799   -1.5653   21.7705 H       1  LIG1        0.0709
     50 H          34.7415   -1.7909   19.5775 H       1  LIG1        0.0460
     51 H          34.8275   -3.6763   19.8293 H       1  LIG1        0.0460
     52 H          37.2118   -1.4126   20.8084 H       1  LIG1        0.0427
     53 H          36.7858   -0.7560   19.2102 H       1  LIG1        0.0427
     54 H          39.2047   -2.4575   19.7532 H       1  LIG1        0.0278
     55 H          39.2444   -0.7356   19.6153 H       1  LIG1        0.0278
     56 H          39.7150   -1.7275   17.3908 H       1  LIG1        0.0266
     57 H          38.1943   -0.9546   17.2904 H       1  LIG1        0.0266
     58 H          38.5635   -3.8972   18.0934 H       1  LIG1        0.0278
     59 H          38.1218   -3.4163   16.4921 H       1  LIG1        0.0278
     60 H          36.1273   -2.2280   17.4485 H       1  LIG1        0.0427
     61 H          36.1102   -3.9654   17.7644 H       1  LIG1        0.0427
@<TRIPOS>BOND
     1     1     2   ar
     2     1    16   ar
     3     2     3   ar
     4     3     4    1
     5     3     5   ar
     6     4    35    1
     7     5     6   ar
     8     6     7   ar
     9     6    16   ar
    10     7     8   ar
    11     8     9    1
    12     8    17   ar
    13     9    10   ar
    14     9    15   ar
    15    10    11   ar
    16    11    12   ar
    17    12    13    1
    18    12    14   ar
    19    13    36    1
    20    14    15   ar
    21    16    17   ar
    22    17    18    1
    23    18    19    2
    24    18    20    1
    25    20    21   ar
    26    20    25   ar
    27    21    22   ar
    28    22    23   ar
    29    23    24   ar
    30    23    26    1
    31    24    25   ar
    32    26    27    1
    33    27    28    1
    34    28    29    1
    35    29    30    1
    36    29    34    1
    37    30    31    1
    38    31    32    1
    39    32    33    1
    40    33    34    1
    41     1    37    1
    42     2    38    1
    43     5    39    1
    44    10    40    1
    45    11    41    1
    46    14    42    1
    47    15    43    1
    48    21    44    1
    49    22    45    1
    50    24    46    1
    51    25    47    1
    52    27    48    1
    53    27    49    1
    54    28    50    1
    55    28    51    1
    56    30    52    1
    57    30    53    1
    58    31    54    1
    59    31    55    1
    60    32    56    1
    61    32    57    1
    62    33    58    1
    63    33    59    1
    64    34    60    1
    65    34    61    1
