@<TRIPOS>MOLECULE
pose3.pdb
 61 65 0 0 0
SMALL
GASTEIGER

@<TRIPOS>ATOM
      1  C1        33.0720   -1.0410   27.8040 C.ar    1  LIG1       -0.0494
      2  C2        34.1860   -0.4610   28.3530 C.ar    1  LIG1       -0.0195
      3  C3        34.1200    0.6530   29.1430 C.ar    1  LIG1        0.1180
      4  O1        35.3050    1.1190   29.6550 O.3     1  LIG1       -0.5067
      5  C4        32.8710    1.2200   29.4240 C.ar    1  LIG1       -0.0058
      6  C5        31.7550    0.6150   28.9010 C.ar    1  LIG1        0.0241
      7  S1        30.1680    1.0650   29.0080 S.2     1  LIG1       -0.0874
      8  C6        29.5030   -0.1980   28.1070 C.ar    1  LIG1        0.0313
      9  C7        28.0550   -0.2960   27.7660 C.ar    1  LIG1       -0.0104
     10  C8        27.4470    0.8970   27.4260 C.ar    1  LIG1       -0.0501
     11  C9        26.1240    0.8660   27.0150 C.ar    1  LIG1       -0.0196
     12  C10       25.4070   -0.3130   26.9790 C.ar    1  LIG1        0.1169
     13  O2        24.0810   -0.2450   26.5470 O.3     1  LIG1       -0.5068
     14  C11       26.0290   -1.5090   27.2750 C.ar    1  LIG1       -0.0196
     15  C12       27.3600   -1.4700   27.6700 C.ar    1  LIG1       -0.0501
     16  C13       31.8550   -0.5350   28.0670 C.ar    1  LIG1        0.0008
     17  C14       30.5560   -0.9820   27.5900 C.ar    1  LIG1        0.0447
     18  C15       30.4100   -2.0590   26.7370 C.2     1  LIG1        0.1948
     19  O3        29.6810   -3.0020   27.0710 O.2     1  LIG1       -0.2866
     20  C16       31.0990   -2.1490   25.4450 C.ar    1  LIG1        0.0225
     21  C17       30.8970   -1.1910   24.4720 C.ar    1  LIG1       -0.0475
     22  C18       31.5180   -1.2540   23.2400 C.ar    1  LIG1       -0.0193
     23  C19       32.3520   -2.3370   22.9650 C.ar    1  LIG1        0.1206
     24  C20       32.5680   -3.2990   23.9360 C.ar    1  LIG1       -0.0193
     25  C21       31.9530   -3.1970   25.1720 C.ar    1  LIG1       -0.0475
     26  O4        33.0540   -2.6160   21.8300 O.3     1  LIG1       -0.4907
     27  C22       34.3670   -2.0840   21.7490 C.3     1  LIG1        0.1022
     28  C23       34.9230   -2.2690   20.3630 C.3     1  LIG1        0.0331
     29  N1        35.7390   -1.3650   19.5760 N.3     1  LIG1       -0.2991
     30  C24       37.1480   -1.5080   19.9940 C.3     1  LIG1       -0.0010
     31  C25       38.1400   -0.7070   19.1260 C.3     1  LIG1       -0.0402
     32  C26       37.7720    0.7760   19.2890 C.3     1  LIG1       -0.0507
     33  C27       36.3480    0.8810   18.6620 C.3     1  LIG1       -0.0402
     34  C28       35.4000    0.0720   19.5640 C.3     1  LIG1       -0.0010
     35  H1        36.0940    1.0430   29.1540 H       1  LIG1        0.2921
     36  H2        23.6730   -0.9980   26.1670 H       1  LIG1        0.2921
     37 H          33.1676   -1.8648   27.1898 H       1  LIG1        0.0625
     38 H          35.1093   -0.8810   28.1629 H       1  LIG1        0.0654
     39 H          32.7916    2.0678   30.0071 H       1  LIG1        0.0665
     40 H          27.9647    1.7883   27.4768 H       1  LIG1        0.0625
     41 H          25.6642    1.7446   26.7292 H       1  LIG1        0.0654
     42 H          25.5209   -2.4045   27.2050 H       1  LIG1        0.0654
     43 H          27.8397   -2.3548   27.8983 H       1  LIG1        0.0625
     44 H          30.2617   -0.4026   24.6715 H       1  LIG1        0.0626
     45 H          31.3677   -0.5139   22.5367 H       1  LIG1        0.0654
     46 H          33.1913   -4.0972   23.7375 H       1  LIG1        0.0654
     47 H          32.1350   -3.9107   25.8948 H       1  LIG1        0.0626
     48 H          34.9962   -2.5893   22.4517 H       1  LIG1        0.0709
     49 H          34.3323   -1.0382   21.9725 H       1  LIG1        0.0709
     50 H          34.0620   -2.4479   19.7535 H       1  LIG1        0.0460
     51 H          35.6805   -2.9866   20.6001 H       1  LIG1        0.0460
     52 H          37.4124   -2.5434   19.9399 H       1  LIG1        0.0427
     53 H          37.2189   -1.1182   20.9880 H       1  LIG1        0.0427
     54 H          38.0511   -0.9984   18.1003 H       1  LIG1        0.0278
     55 H          39.1500   -0.8884   19.4291 H       1  LIG1        0.0278
     56 H          38.4655    1.4000   18.7650 H       1  LIG1        0.0266
     57 H          37.7981    1.0976   20.3092 H       1  LIG1        0.0266
     58 H          36.3509    0.4736   17.6726 H       1  LIG1        0.0278
     59 H          36.0339    1.9017   18.5952 H       1  LIG1        0.0278
     60 H          35.4664    0.4508   20.5625 H       1  LIG1        0.0427
     61 H          34.4080    0.1740   19.1761 H       1  LIG1        0.0427
@<TRIPOS>BOND
     1     1     2   ar
     2     1    16   ar
     3     2     3   ar
     4     3     4    1
     5     3     5   ar
     6     4    35    1
     7     5     6   ar
     8     6     7   ar
     9     6    16   ar
    10     7     8   ar
    11     8     9    1
    12     8    17   ar
    13     9    10   ar
    14     9    15   ar
    15    10    11   ar
    16    11    12   ar
    17    12    13    1
    18    12    14   ar
    19    13    36    1
    20    14    15   ar
    21    16    17   ar
    22    17    18    1
    23    18    19    2
    24    18    20    1
    25    20    21   ar
    26    20    25   ar
    27    21    22   ar
    28    22    23   ar
    29    23    24   ar
    30    23    26    1
    31    24    25   ar
    32    26    27    1
    33    27    28    1
    34    28    29    1
    35    29    30    1
    36    29    34    1
    37    30    31    1
    38    31    32    1
    39    32    33    1
    40    33    34    1
    41     1    37    1
    42     2    38    1
    43     5    39    1
    44    10    40    1
    45    11    41    1
    46    14    42    1
    47    15    43    1
    48    21    44    1
    49    22    45    1
    50    24    46    1
    51    25    47    1
    52    27    48    1
    53    27    49    1
    54    28    50    1
    55    28    51    1
    56    30    52    1
    57    30    53    1
    58    31    54    1
    59    31    55    1
    60    32    56    1
    61    32    57    1
    62    33    58    1
    63    33    59    1
    64    34    60    1
    65    34    61    1
