@<TRIPOS>MOLECULE
pose6.pdb
 61 65 0 0 0
SMALL
GASTEIGER

@<TRIPOS>ATOM
      1  C1        32.3810   -1.6950   27.4640 C.ar    1  LIG1       -0.0494
      2  C2        33.4530   -1.4080   28.2690 C.ar    1  LIG1       -0.0195
      3  C3        33.3230   -0.7300   29.4490 C.ar    1  LIG1        0.1180
      4  O1        34.4700   -0.5320   30.1770 O.3     1  LIG1       -0.5067
      5  C4        32.0520   -0.3240   29.8700 C.ar    1  LIG1       -0.0058
      6  C5        30.9770   -0.6440   29.0780 C.ar    1  LIG1        0.0241
      7  S1        29.3790   -0.2690   29.2720 S.2     1  LIG1       -0.0874
      8  C6        28.7860   -1.0300   27.8870 C.ar    1  LIG1        0.0313
      9  C7        27.3610   -0.9650   27.4540 C.ar    1  LIG1       -0.0104
     10  C8        26.7860   -2.1800   27.1360 C.ar    1  LIG1       -0.0501
     11  C9        25.4390   -2.2040   26.8100 C.ar    1  LIG1       -0.0196
     12  C10       24.6890   -1.0460   26.7600 C.ar    1  LIG1        0.1169
     13  O2        23.3390   -1.1700   26.4250 O.3     1  LIG1       -0.5068
     14  C11       25.2530    0.1590   27.1230 C.ar    1  LIG1       -0.0196
     15  C12       26.6000    0.1710   27.4650 C.ar    1  LIG1       -0.0501
     16  C13       31.1430   -1.3370   27.8450 C.ar    1  LIG1        0.0008
     17  C14       29.8800   -1.5320   27.1500 C.ar    1  LIG1        0.0447
     18  C15       29.8000   -2.1500   25.9170 C.2     1  LIG1        0.1948
     19  O3        28.7410   -2.6930   25.5780 O.2     1  LIG1       -0.2866
     20  C16       30.9300   -2.2070   24.9820 C.ar    1  LIG1        0.0225
     21  C17       31.8230   -3.2580   25.0220 C.ar    1  LIG1       -0.0475
     22  C18       32.9050   -3.3350   24.1670 C.ar    1  LIG1       -0.0193
     23  C19       33.1130   -2.3000   23.2560 C.ar    1  LIG1        0.1206
     24  C20       32.2190   -1.2460   23.2020 C.ar    1  LIG1       -0.0193
     25  C21       31.1280   -1.2080   24.0530 C.ar    1  LIG1       -0.0475
     26  O4        34.1060   -2.1530   22.3330 O.3     1  LIG1       -0.4907
     27  C22       33.7410   -2.3400   20.9740 C.3     1  LIG1        0.1022
     28  C23       33.0740   -3.6780   20.7900 C.3     1  LIG1        0.0331
     29  N1        32.4730   -4.2440   19.5980 N.3     1  LIG1       -0.2991
     30  C24       31.1440   -3.6310   19.3970 C.3     1  LIG1       -0.0010
     31  C25       30.4640   -4.0400   18.0750 C.3     1  LIG1       -0.0402
     32  C26       30.2510   -5.5610   18.1380 C.3     1  LIG1       -0.0507
     33  C27       31.6990   -6.1410   18.1650 C.3     1  LIG1       -0.0402
     34  C28       32.3290   -5.7100   19.5010 C.3     1  LIG1       -0.0010
     35  H1        34.5000    0.1370   30.8320 H       1  LIG1        0.2921
     36  H2        23.0220   -1.9660   26.0460 H       1  LIG1        0.2921
     37 H          32.5245   -2.1850   26.5672 H       1  LIG1        0.0625
     38 H          34.3928   -1.7151   27.9733 H       1  LIG1        0.0654
     39 H          31.9262    0.2005   30.7498 H       1  LIG1        0.0665
     40 H          27.3449   -3.0475   27.1410 H       1  LIG1        0.0625
     41 H          24.9867   -3.1075   26.6000 H       1  LIG1        0.0654
     42 H          24.6921    1.0251   27.1402 H       1  LIG1        0.0654
     43 H          27.0394    1.0647   27.7356 H       1  LIG1        0.0625
     44 H          31.6778   -4.0107   25.7129 H       1  LIG1        0.0626
     45 H          33.5467   -4.1425   24.2017 H       1  LIG1        0.0654
     46 H          32.3663   -0.4830   22.5229 H       1  LIG1        0.0654
     47 H          30.4577   -0.4258   23.9915 H       1  LIG1        0.0626
     48 H          34.6189   -2.2965   20.3638 H       1  LIG1        0.0709
     49 H          33.0569   -1.5684   20.6885 H       1  LIG1        0.0709
     50 H          32.2853   -3.6831   21.5130 H       1  LIG1        0.0460
     51 H          33.9520   -4.2888   20.8200 H       1  LIG1        0.0460
     52 H          31.2588   -2.5672   19.4024 H       1  LIG1        0.0427
     53 H          30.5168   -3.9790   20.1910 H       1  LIG1        0.0427
     54 H          31.0914   -3.7898   17.2451 H       1  LIG1        0.0278
     55 H          29.5339   -3.5268   17.9465 H       1  LIG1        0.0278
     56 H          29.7182   -5.9069   17.2770 H       1  LIG1        0.0266
     57 H          29.6698   -5.8619   18.9845 H       1  LIG1        0.0266
     58 H          32.2673   -5.7497   17.3472 H       1  LIG1        0.0278
     59 H          31.6860   -7.2071   18.0742 H       1  LIG1        0.0278
     60 H          31.7060   -6.0495   20.3020 H       1  LIG1        0.0427
     61 H          33.3060   -6.1423   19.5600 H       1  LIG1        0.0427
@<TRIPOS>BOND
     1     1     2   ar
     2     1    16   ar
     3     2     3   ar
     4     3     4    1
     5     3     5   ar
     6     4    35    1
     7     5     6   ar
     8     6     7   ar
     9     6    16   ar
    10     7     8   ar
    11     8     9    1
    12     8    17   ar
    13     9    10   ar
    14     9    15   ar
    15    10    11   ar
    16    11    12   ar
    17    12    13    1
    18    12    14   ar
    19    13    36    1
    20    14    15   ar
    21    16    17   ar
    22    17    18    1
    23    18    19    2
    24    18    20    1
    25    20    21   ar
    26    20    25   ar
    27    21    22   ar
    28    22    23   ar
    29    23    24   ar
    30    23    26    1
    31    24    25   ar
    32    26    27    1
    33    27    28    1
    34    28    29    1
    35    29    30    1
    36    29    34    1
    37    30    31    1
    38    31    32    1
    39    32    33    1
    40    33    34    1
    41     1    37    1
    42     2    38    1
    43     5    39    1
    44    10    40    1
    45    11    41    1
    46    14    42    1
    47    15    43    1
    48    21    44    1
    49    22    45    1
    50    24    46    1
    51    25    47    1
    52    27    48    1
    53    27    49    1
    54    28    50    1
    55    28    51    1
    56    30    52    1
    57    30    53    1
    58    31    54    1
    59    31    55    1
    60    32    56    1
    61    32    57    1
    62    33    58    1
    63    33    59    1
    64    34    60    1
    65    34    61    1
