@<TRIPOS>MOLECULE
pose0.pdb
 61 65 0 0 0
SMALL
GASTEIGER

@<TRIPOS>ATOM
      1  C1        26.8450   -1.6960   26.8660 C.ar    1  LIG1       -0.0494
      2  C2        25.5410   -1.3090   27.0410 C.ar    1  LIG1       -0.0195
      3  C3        25.1910   -0.0190   27.3270 C.ar    1  LIG1        0.1180
      4  O1        23.8490    0.2440   27.4490 O.3     1  LIG1       -0.5067
      5  C4        26.1900    0.9560   27.4290 C.ar    1  LIG1       -0.0058
      6  C5        27.4910    0.5710   27.2180 C.ar    1  LIG1        0.0241
      7  S1        28.8800    1.4620   27.3150 S.2     1  LIG1       -0.0874
      8  C6        29.9740    0.2400   26.9190 C.ar    1  LIG1        0.0313
      9  C7        31.4540    0.4210   26.9250 C.ar    1  LIG1       -0.0104
     10  C8        31.9310    1.4000   26.0750 C.ar    1  LIG1       -0.0501
     11  C9        33.2870    1.6830   26.0940 C.ar    1  LIG1       -0.0196
     12  C10       34.1580    0.9840   26.9060 C.ar    1  LIG1        0.1169
     13  O2        35.5070    1.3420   26.8600 O.3     1  LIG1       -0.5068
     14  C11       33.6730    0.0390   27.7870 C.ar    1  LIG1       -0.0196
     15  C12       32.3090   -0.2250   27.7740 C.ar    1  LIG1       -0.0501
     16  C13       27.8290   -0.7840   26.9390 C.ar    1  LIG1        0.0008
     17  C14       29.2640   -0.9730   26.7950 C.ar    1  LIG1        0.0447
     18  C15       29.8280   -2.2120   26.5550 C.2     1  LIG1        0.1948
     19  O3        29.6020   -3.1420   27.3400 O.2     1  LIG1       -0.2866
     20  C16       30.7040   -2.4780   25.4090 C.ar    1  LIG1        0.0225
     21  C17       31.2490   -3.7320   25.2170 C.ar    1  LIG1       -0.0475
     22  C18       32.0890   -4.0120   24.1570 C.ar    1  LIG1       -0.0193
     23  C19       32.4170   -2.9850   23.2730 C.ar    1  LIG1        0.1206
     24  C20       31.8700   -1.7270   23.4520 C.ar    1  LIG1       -0.0193
     25  C21       31.0090   -1.4810   24.5080 C.ar    1  LIG1       -0.0475
     26  O4        33.2250   -3.0200   22.1750 O.3     1  LIG1       -0.4907
     27  C22       33.5710   -4.3050   21.6830 C.3     1  LIG1        0.1022
     28  C23       34.8750   -4.2450   20.9320 C.3     1  LIG1        0.0331
     29  N1        36.0350   -5.1080   21.0450 N.3     1  LIG1       -0.2991
     30  C24       37.2480   -4.3130   20.7620 C.3     1  LIG1       -0.0010
     31  C25       38.5640   -5.0810   20.9970 C.3     1  LIG1       -0.0402
     32  C26       38.5660   -6.2660   20.0180 C.3     1  LIG1       -0.0507
     33  C27       37.3710   -7.1480   20.4940 C.3     1  LIG1       -0.0402
     34  C28       36.0870   -6.3400   20.2350 C.3     1  LIG1       -0.0010
     35  H1        23.4190    0.7900   26.8210 H       1  LIG1        0.2921
     36  H2        36.1110    0.9750   27.4750 H       1  LIG1        0.2921
     37 H          27.0700   -2.6856   26.6786 H       1  LIG1        0.0625
     38 H          24.7963   -2.0181   26.9535 H       1  LIG1        0.0654
     39 H          25.9557    1.9351   27.6560 H       1  LIG1        0.0665
     40 H          31.2934    1.9076   25.4419 H       1  LIG1        0.0625
     41 H          33.6544    2.4330   25.4877 H       1  LIG1        0.0654
     42 H          34.3043   -0.4566   28.4358 H       1  LIG1        0.0654
     43 H          31.9297   -0.9302   28.4250 H       1  LIG1        0.0625
     44 H          31.0216   -4.4837   25.8865 H       1  LIG1        0.0626
     45 H          32.4665   -4.9629   24.0219 H       1  LIG1        0.0654
     46 H          32.1052   -0.9672   22.7944 H       1  LIG1        0.0654
     47 H          30.5924   -0.5436   24.6212 H       1  LIG1        0.0626
     48 H          32.8007   -4.6500   21.0253 H       1  LIG1        0.0709
     49 H          33.6765   -4.9766   22.5093 H       1  LIG1        0.0709
     50 H          35.2528   -3.2644   21.1334 H       1  LIG1        0.0460
     51 H          34.5196   -4.5936   19.9849 H       1  LIG1        0.0460
     52 H          37.2423   -3.4514   21.3964 H       1  LIG1        0.0427
     53 H          37.2177   -4.0570   19.7235 H       1  LIG1        0.0427
     54 H          38.6086   -5.4360   22.0054 H       1  LIG1        0.0278
     55 H          39.4121   -4.4485   20.8368 H       1  LIG1        0.0278
     56 H          39.4867   -6.8079   20.0781 H       1  LIG1        0.0266
     57 H          38.4710   -5.9583   18.9976 H       1  LIG1        0.0266
     58 H          37.4657   -7.3635   21.5378 H       1  LIG1        0.0278
     59 H          37.3496   -8.0796   19.9680 H       1  LIG1        0.0278
     60 H          36.0495   -6.0740   19.1993 H       1  LIG1        0.0427
     61 H          35.2520   -6.9505   20.5089 H       1  LIG1        0.0427
@<TRIPOS>BOND
     1     1     2   ar
     2     1    16   ar
     3     2     3   ar
     4     3     4    1
     5     3     5   ar
     6     4    35    1
     7     5     6   ar
     8     6     7   ar
     9     6    16   ar
    10     7     8   ar
    11     8     9    1
    12     8    17   ar
    13     9    10   ar
    14     9    15   ar
    15    10    11   ar
    16    11    12   ar
    17    12    13    1
    18    12    14   ar
    19    13    36    1
    20    14    15   ar
    21    16    17   ar
    22    17    18    1
    23    18    19    2
    24    18    20    1
    25    20    21   ar
    26    20    25   ar
    27    21    22   ar
    28    22    23   ar
    29    23    24   ar
    30    23    26    1
    31    24    25   ar
    32    26    27    1
    33    27    28    1
    34    28    29    1
    35    29    30    1
    36    29    34    1
    37    30    31    1
    38    31    32    1
    39    32    33    1
    40    33    34    1
    41     1    37    1
    42     2    38    1
    43     5    39    1
    44    10    40    1
    45    11    41    1
    46    14    42    1
    47    15    43    1
    48    21    44    1
    49    22    45    1
    50    24    46    1
    51    25    47    1
    52    27    48    1
    53    27    49    1
    54    28    50    1
    55    28    51    1
    56    30    52    1
    57    30    53    1
    58    31    54    1
    59    31    55    1
    60    32    56    1
    61    32    57    1
    62    33    58    1
    63    33    59    1
    64    34    60    1
    65    34    61    1
