@<TRIPOS>MOLECULE
pose9.pdb
 61 65 0 0 0
SMALL
GASTEIGER

@<TRIPOS>ATOM
      1  C1        26.5270   -2.1520   25.9350 C.ar    1  LIG1       -0.0494
      2  C2        25.1890   -1.8600   25.8720 C.ar    1  LIG1       -0.0195
      3  C3        24.6640   -0.7110   26.3930 C.ar    1  LIG1        0.1180
      4  O1        23.3130   -0.5240   26.2380 O.3     1  LIG1       -0.5067
      5  C4        25.5160    0.2180   27.0000 C.ar    1  LIG1       -0.0058
      6  C5        26.8600   -0.0620   27.0300 C.ar    1  LIG1        0.0241
      7  S1        28.0980    0.7980   27.7090 S.2     1  LIG1       -0.0874
      8  C6        29.3630   -0.2380   27.2910 C.ar    1  LIG1        0.0313
      9  C7        30.7760   -0.0320   27.7190 C.ar    1  LIG1       -0.0104
     10  C8        31.1810    1.2860   27.7980 C.ar    1  LIG1       -0.0501
     11  C9        32.4550    1.5550   28.2730 C.ar    1  LIG1       -0.0196
     12  C10       33.3220    0.5390   28.6240 C.ar    1  LIG1        0.1169
     13  O2        34.5840    0.9080   29.0960 O.3     1  LIG1       -0.5068
     14  C11       32.9000   -0.7730   28.5880 C.ar    1  LIG1       -0.0196
     15  C12       31.6150   -1.0320   28.1270 C.ar    1  LIG1       -0.0501
     16  C13       27.3780   -1.2750   26.4940 C.ar    1  LIG1        0.0008
     17  C14       28.8170   -1.3830   26.6730 C.ar    1  LIG1        0.0447
     18  C15       29.5340   -2.4910   26.2620 C.2     1  LIG1        0.1948
     19  O3        29.1700   -3.6170   26.6260 O.2     1  LIG1       -0.2866
     20  C16       30.7290   -2.3970   25.4170 C.ar    1  LIG1        0.0225
     21  C17       31.0070   -1.2390   24.7180 C.ar    1  LIG1       -0.0475
     22  C18       32.1150   -1.1220   23.9020 C.ar    1  LIG1       -0.0193
     23  C19       32.9610   -2.2210   23.7600 C.ar    1  LIG1        0.1206
     24  C20       32.6960   -3.3840   24.4610 C.ar    1  LIG1       -0.0193
     25  C21       31.5930   -3.4640   25.2940 C.ar    1  LIG1       -0.0475
     26  O4        34.0930   -2.3440   23.0110 O.3     1  LIG1       -0.4907
     27  C22       33.9640   -3.0240   21.7720 C.3     1  LIG1        0.1022
     28  C23       35.0070   -2.5430   20.7990 C.3     1  LIG1        0.0331
     29  N1        36.3590   -3.0250   20.5950 N.3     1  LIG1       -0.2991
     30  C24       37.2990   -1.9040   20.7970 C.3     1  LIG1       -0.0010
     31  C25       38.7830   -2.3210   20.7570 C.3     1  LIG1       -0.0402
     32  C26       39.0480   -2.8790   19.3500 C.3     1  LIG1       -0.0507
     33  C27       38.1580   -4.1590   19.2810 C.3     1  LIG1       -0.0402
     34  C28       36.6940   -3.6880   19.3200 C.3     1  LIG1       -0.0010
     35  H1        22.8380   -1.0310   25.6090 H       1  LIG1        0.2921
     36  H2        34.7340    1.7820   29.3970 H       1  LIG1        0.2921
     37 H          26.8800   -3.0437   25.5538 H       1  LIG1        0.0625
     38 H          24.5547   -2.5330   25.4141 H       1  LIG1        0.0654
     39 H          25.1453    1.0881   27.4130 H       1  LIG1        0.0665
     40 H          30.5510    2.0512   27.5106 H       1  LIG1        0.0625
     41 H          32.7623    2.5357   28.3664 H       1  LIG1        0.0654
     42 H          33.5196   -1.5394   28.8941 H       1  LIG1        0.0654
     43 H          31.2837   -2.0087   28.0914 H       1  LIG1        0.0625
     44 H          30.3662   -0.4351   24.8083 H       1  LIG1        0.0626
     45 H          32.3129   -0.2383   23.4070 H       1  LIG1        0.0654
     46 H          33.3243   -4.1968   24.3624 H       1  LIG1        0.0654
     47 H          31.4162   -4.3297   25.8273 H       1  LIG1        0.0626
     48 H          32.9913   -2.8376   21.3670 H       1  LIG1        0.0709
     49 H          34.0991   -4.0727   21.9357 H       1  LIG1        0.0709
     50 H          35.1273   -1.5053   21.0304 H       1  LIG1        0.0460
     51 H          34.5709   -2.9367   19.9048 H       1  LIG1        0.0460
     52 H          37.0981   -1.4631   21.7510 H       1  LIG1        0.0427
     53 H          37.1458   -1.2195   19.9890 H       1  LIG1        0.0427
     54 H          38.9746   -3.0728   21.4938 H       1  LIG1        0.0278
     55 H          39.4220   -1.4890   20.9673 H       1  LIG1        0.0278
     56 H          40.0816   -3.1268   19.2270 H       1  LIG1        0.0266
     57 H          38.8199   -2.1753   18.5769 H       1  LIG1        0.0266
     58 H          38.3624   -4.7948   20.1170 H       1  LIG1        0.0278
     59 H          38.3573   -4.7165   18.3897 H       1  LIG1        0.0278
     60 H          36.5321   -2.9975   18.5189 H       1  LIG1        0.0427
     61 H          36.0674   -4.5498   19.2217 H       1  LIG1        0.0427
@<TRIPOS>BOND
     1     1     2   ar
     2     1    16   ar
     3     2     3   ar
     4     3     4    1
     5     3     5   ar
     6     4    35    1
     7     5     6   ar
     8     6     7   ar
     9     6    16   ar
    10     7     8   ar
    11     8     9    1
    12     8    17   ar
    13     9    10   ar
    14     9    15   ar
    15    10    11   ar
    16    11    12   ar
    17    12    13    1
    18    12    14   ar
    19    13    36    1
    20    14    15   ar
    21    16    17   ar
    22    17    18    1
    23    18    19    2
    24    18    20    1
    25    20    21   ar
    26    20    25   ar
    27    21    22   ar
    28    22    23   ar
    29    23    24   ar
    30    23    26    1
    31    24    25   ar
    32    26    27    1
    33    27    28    1
    34    28    29    1
    35    29    30    1
    36    29    34    1
    37    30    31    1
    38    31    32    1
    39    32    33    1
    40    33    34    1
    41     1    37    1
    42     2    38    1
    43     5    39    1
    44    10    40    1
    45    11    41    1
    46    14    42    1
    47    15    43    1
    48    21    44    1
    49    22    45    1
    50    24    46    1
    51    25    47    1
    52    27    48    1
    53    27    49    1
    54    28    50    1
    55    28    51    1
    56    30    52    1
    57    30    53    1
    58    31    54    1
    59    31    55    1
    60    32    56    1
    61    32    57    1
    62    33    58    1
    63    33    59    1
    64    34    60    1
    65    34    61    1
