@<TRIPOS>MOLECULE
pose1.pdb
 61 65 0 0 0
SMALL
GASTEIGER

@<TRIPOS>ATOM
      1  C1        34.1140    0.3510   25.9040 C.ar    1  LIG1       -0.0494
      2  C2        35.3790    0.6360   26.3500 C.ar    1  LIG1       -0.0195
      3  C3        35.6260    1.0920   27.6150 C.ar    1  LIG1        0.1180
      4  O1        36.9400    1.3110   27.9470 O.3     1  LIG1       -0.5067
      5  C4        34.5580    1.2610   28.5030 C.ar    1  LIG1       -0.0058
      6  C5        33.2960    0.9420   28.0640 C.ar    1  LIG1        0.0241
      7  S1        31.8460    1.0770   28.8440 S.2     1  LIG1       -0.0874
      8  C6        30.8570    0.4830   27.6120 C.ar    1  LIG1        0.0313
      9  C7        29.3690    0.4390   27.6950 C.ar    1  LIG1       -0.0104
     10  C8        28.8340   -0.7920   28.0230 C.ar    1  LIG1       -0.0501
     11  C9        27.4630   -0.8850   28.2030 C.ar    1  LIG1       -0.0196
     12  C10       26.6360    0.2060   28.0230 C.ar    1  LIG1        0.1169
     13  O2        25.2690    0.0160   28.2310 O.3     1  LIG1       -0.5068
     14  C11       27.1770    1.4440   27.7420 C.ar    1  LIG1       -0.0196
     15  C12       28.5550    1.5310   27.5790 C.ar    1  LIG1       -0.0501
     16  C13       33.0660    0.4850   26.7350 C.ar    1  LIG1        0.0008
     17  C14       31.6550    0.2490   26.4720 C.ar    1  LIG1        0.0447
     18  C15       31.1900   -0.1650   25.2380 C.2     1  LIG1        0.1948
     19  O3        30.1950    0.3840   24.7500 O.2     1  LIG1       -0.2866
     20  C16       31.8190   -1.2490   24.4750 C.ar    1  LIG1        0.0225
     21  C17       32.5740   -0.9730   23.3530 C.ar    1  LIG1       -0.0475
     22  C18       33.1660   -1.9710   22.6040 C.ar    1  LIG1       -0.0193
     23  C19       32.9690   -3.2990   22.9810 C.ar    1  LIG1        0.1206
     24  C20       32.2210   -3.5860   24.1090 C.ar    1  LIG1       -0.0193
     25  C21       31.6600   -2.5640   24.8570 C.ar    1  LIG1       -0.0475
     26  O4        33.4380   -4.4380   22.3970 O.3     1  LIG1       -0.4907
     27  C22       33.9810   -4.3050   21.0920 C.3     1  LIG1        0.1022
     28  C23       33.2840   -5.2360   20.1370 C.3     1  LIG1        0.0331
     29  N1        33.8550   -6.1130   19.1330 N.3     1  LIG1       -0.2991
     30  C24       35.0680   -5.4770   18.5800 C.3     1  LIG1       -0.0010
     31  C25       35.8550   -6.3780   17.6080 C.3     1  LIG1       -0.0402
     32  C26       34.9220   -6.6710   16.4210 C.3     1  LIG1       -0.0507
     33  C27       33.7600   -7.4970   17.0540 C.3     1  LIG1       -0.0402
     34  C28       33.0070   -6.5540   18.0090 C.3     1  LIG1       -0.0010
     35  H1        37.2030    2.1400   28.2950 H       1  LIG1        0.2921
     36  H2        24.6500    0.3480   27.6110 H       1  LIG1        0.2921
     37 H          33.9670    0.0344   24.9328 H       1  LIG1        0.0625
     38 H          36.1745    0.5012   25.7066 H       1  LIG1        0.0654
     39 H          34.7138    1.6150   29.4598 H       1  LIG1        0.0665
     40 H          29.4396   -1.6206   28.1311 H       1  LIG1        0.0625
     41 H          27.0508   -1.7903   28.4778 H       1  LIG1        0.0654
     42 H          26.5773    2.2794   27.6555 H       1  LIG1        0.0654
     43 H          28.9763    2.4482   27.3638 H       1  LIG1        0.0625
     44 H          32.7001    0.0099   23.0647 H       1  LIG1        0.0626
     45 H          33.7433   -1.7383   21.7808 H       1  LIG1        0.0654
     46 H          32.0802   -4.5676   24.3949 H       1  LIG1        0.0654
     47 H          31.1190   -2.7887   25.7066 H       1  LIG1        0.0626
     48 H          35.0240   -4.5426   21.1181 H       1  LIG1        0.0709
     49 H          33.8418   -3.2977   20.7589 H       1  LIG1        0.0709
     50 H          32.6176   -4.6035   19.5887 H       1  LIG1        0.0460
     51 H          32.9940   -5.9856   20.8433 H       1  LIG1        0.0460
     52 H          35.7120   -5.2147   19.3933 H       1  LIG1        0.0427
     53 H          34.7452   -4.6234   18.0214 H       1  LIG1        0.0427
     54 H          36.1315   -7.2906   18.0934 H       1  LIG1        0.0278
     55 H          36.7536   -5.8979   17.2811 H       1  LIG1        0.0278
     56 H          35.4286   -7.2401   15.6697 H       1  LIG1        0.0266
     57 H          34.5795   -5.7813   15.9352 H       1  LIG1        0.0266
     58 H          34.1546   -8.3308   17.5961 H       1  LIG1        0.0278
     59 H          33.1055   -7.8775   16.2978 H       1  LIG1        0.0278
     60 H          32.6843   -5.6933   17.4613 H       1  LIG1        0.0427
     61 H          32.1740   -7.0899   18.4139 H       1  LIG1        0.0427
@<TRIPOS>BOND
     1     1     2   ar
     2     1    16   ar
     3     2     3   ar
     4     3     4    1
     5     3     5   ar
     6     4    35    1
     7     5     6   ar
     8     6     7   ar
     9     6    16   ar
    10     7     8   ar
    11     8     9    1
    12     8    17   ar
    13     9    10   ar
    14     9    15   ar
    15    10    11   ar
    16    11    12   ar
    17    12    13    1
    18    12    14   ar
    19    13    36    1
    20    14    15   ar
    21    16    17   ar
    22    17    18    1
    23    18    19    2
    24    18    20    1
    25    20    21   ar
    26    20    25   ar
    27    21    22   ar
    28    22    23   ar
    29    23    24   ar
    30    23    26    1
    31    24    25   ar
    32    26    27    1
    33    27    28    1
    34    28    29    1
    35    29    30    1
    36    29    34    1
    37    30    31    1
    38    31    32    1
    39    32    33    1
    40    33    34    1
    41     1    37    1
    42     2    38    1
    43     5    39    1
    44    10    40    1
    45    11    41    1
    46    14    42    1
    47    15    43    1
    48    21    44    1
    49    22    45    1
    50    24    46    1
    51    25    47    1
    52    27    48    1
    53    27    49    1
    54    28    50    1
    55    28    51    1
    56    30    52    1
    57    30    53    1
    58    31    54    1
    59    31    55    1
    60    32    56    1
    61    32    57    1
    62    33    58    1
    63    33    59    1
    64    34    60    1
    65    34    61    1
