@<TRIPOS>MOLECULE
pose4.pdb
 61 65 0 0 0
SMALL
GASTEIGER

@<TRIPOS>ATOM
      1  C1        27.2060   -2.2590   27.4280 C.ar    1  LIG1       -0.0494
      2  C2        25.9350   -1.8660   27.7610 C.ar    1  LIG1       -0.0195
      3  C3        25.6880   -0.8210   28.6080 C.ar    1  LIG1        0.1180
      4  O1        24.3710   -0.5100   28.8370 O.3     1  LIG1       -0.5067
      5  C4        26.7640   -0.1080   29.1470 C.ar    1  LIG1       -0.0058
      6  C5        28.0350   -0.4820   28.7850 C.ar    1  LIG1        0.0241
      7  S1        29.4910    0.1200   29.2820 S.2     1  LIG1       -0.0874
      8  C6        30.4890   -0.8890   28.3680 C.ar    1  LIG1        0.0313
      9  C7        31.9770   -0.8800   28.4580 C.ar    1  LIG1       -0.0104
     10  C8        32.5010   -1.4300   29.6120 C.ar    1  LIG1       -0.0501
     11  C9        33.8780   -1.5350   29.7250 C.ar    1  LIG1       -0.0196
     12  C10       34.7190   -1.0680   28.7340 C.ar    1  LIG1        0.1169
     13  O2        36.0930   -1.2200   28.9350 O.3     1  LIG1       -0.5068
     14  C11       34.1940   -0.5610   27.5640 C.ar    1  LIG1       -0.0196
     15  C12       32.8120   -0.4760   27.4530 C.ar    1  LIG1       -0.0501
     16  C13       28.2630   -1.5860   27.9130 C.ar    1  LIG1        0.0008
     17  C14       29.6800   -1.8320   27.7000 C.ar    1  LIG1        0.0447
     18  C15       30.1420   -2.8740   26.9180 C.2     1  LIG1        0.1948
     19  O3        29.6010   -3.9830   27.0050 O.2     1  LIG1       -0.2866
     20  C16       31.2670   -2.7310   25.9870 C.ar    1  LIG1        0.0225
     21  C17       31.1730   -1.8940   24.8930 C.ar    1  LIG1       -0.0475
     22  C18       32.2080   -1.7480   23.9890 C.ar    1  LIG1       -0.0193
     23  C19       33.3700   -2.4940   24.1770 C.ar    1  LIG1        0.1206
     24  C20       33.4790   -3.3290   25.2750 C.ar    1  LIG1       -0.0193
     25  C21       32.4360   -3.4360   26.1800 C.ar    1  LIG1       -0.0475
     26  O4        34.5040   -2.5250   23.4200 O.3     1  LIG1       -0.4907
     27  C22       34.3470   -2.8850   22.0560 C.3     1  LIG1        0.1022
     28  C23       35.6250   -3.4730   21.5200 C.3     1  LIG1        0.0331
     29  N1        36.1610   -3.4220   20.1730 N.3     1  LIG1       -0.2991
     30  C24       35.1090   -3.8440   19.2260 C.3     1  LIG1       -0.0010
     31  C25       35.5080   -3.6880   17.7440 C.3     1  LIG1       -0.0402
     32  C26       36.7160   -4.6090   17.5120 C.3     1  LIG1       -0.0507
     33  C27       37.8350   -3.9920   18.4060 C.3     1  LIG1       -0.0402
     34  C28       37.3920   -4.1760   19.8680 C.3     1  LIG1       -0.0010
     35  H1        23.9170    0.0640   28.2510 H       1  LIG1        0.2921
     36  H2        36.5220   -0.7440   29.6180 H       1  LIG1        0.2921
     37 H          27.3503   -3.0699   26.8062 H       1  LIG1        0.0625
     38 H          25.1350   -2.3780   27.3573 H       1  LIG1        0.0654
     39 H          26.6072    0.6770   29.7983 H       1  LIG1        0.0665
     40 H          31.8820   -1.7547   30.3712 H       1  LIG1        0.0625
     41 H          34.2838   -1.9714   30.5676 H       1  LIG1        0.0654
     42 H          34.8091   -0.2541   26.7943 H       1  LIG1        0.0654
     43 H          32.4026   -0.0962   26.5852 H       1  LIG1        0.0625
     44 H          30.3020   -1.3604   24.7457 H       1  LIG1        0.0626
     45 H          32.1221   -1.0996   23.1908 H       1  LIG1        0.0654
     46 H          34.3425   -3.8752   25.4204 H       1  LIG1        0.0654
     47 H          32.5346   -4.0481   27.0050 H       1  LIG1        0.0626
     48 H          34.0937   -2.0142   21.4881 H       1  LIG1        0.0709
     49 H          33.5681   -3.6143   21.9761 H       1  LIG1        0.0709
     50 H          35.5472   -4.5182   21.7354 H       1  LIG1        0.0460
     51 H          36.3088   -2.7904   21.9798 H       1  LIG1        0.0460
     52 H          34.2363   -3.2513   19.4048 H       1  LIG1        0.0427
     53 H          34.9369   -4.8865   19.3949 H       1  LIG1        0.0427
     54 H          35.7741   -2.6721   17.5388 H       1  LIG1        0.0278
     55 H          34.6960   -3.9484   17.0976 H       1  LIG1        0.0278
     56 H          37.0059   -4.6046   16.4820 H       1  LIG1        0.0266
     57 H          36.5092   -5.6302   17.7556 H       1  LIG1        0.0266
     58 H          37.9507   -2.9515   18.1848 H       1  LIG1        0.0278
     59 H          38.7751   -4.4710   18.2277 H       1  LIG1        0.0278
     60 H          37.2130   -5.2158   20.0462 H       1  LIG1        0.0427
     61 H          38.1720   -3.8032   20.4985 H       1  LIG1        0.0427
@<TRIPOS>BOND
     1     1     2   ar
     2     1    16   ar
     3     2     3   ar
     4     3     4    1
     5     3     5   ar
     6     4    35    1
     7     5     6   ar
     8     6     7   ar
     9     6    16   ar
    10     7     8   ar
    11     8     9    1
    12     8    17   ar
    13     9    10   ar
    14     9    15   ar
    15    10    11   ar
    16    11    12   ar
    17    12    13    1
    18    12    14   ar
    19    13    36    1
    20    14    15   ar
    21    16    17   ar
    22    17    18    1
    23    18    19    2
    24    18    20    1
    25    20    21   ar
    26    20    25   ar
    27    21    22   ar
    28    22    23   ar
    29    23    24   ar
    30    23    26    1
    31    24    25   ar
    32    26    27    1
    33    27    28    1
    34    28    29    1
    35    29    30    1
    36    29    34    1
    37    30    31    1
    38    31    32    1
    39    32    33    1
    40    33    34    1
    41     1    37    1
    42     2    38    1
    43     5    39    1
    44    10    40    1
    45    11    41    1
    46    14    42    1
    47    15    43    1
    48    21    44    1
    49    22    45    1
    50    24    46    1
    51    25    47    1
    52    27    48    1
    53    27    49    1
    54    28    50    1
    55    28    51    1
    56    30    52    1
    57    30    53    1
    58    31    54    1
    59    31    55    1
    60    32    56    1
    61    32    57    1
    62    33    58    1
    63    33    59    1
    64    34    60    1
    65    34    61    1
