@<TRIPOS>MOLECULE
pose7.pdb
 61 65 0 0 0
SMALL
GASTEIGER

@<TRIPOS>ATOM
      1  C1        33.1000   -0.7390   26.0810 C.ar    1  LIG1       -0.0494
      2  C2        34.2920   -0.0640   26.1230 C.ar    1  LIG1       -0.0195
      3  C3        34.3920    1.2210   26.5780 C.ar    1  LIG1        0.1180
      4  O1        35.6490    1.7740   26.5970 O.3     1  LIG1       -0.5067
      5  C4        33.2440    1.8760   27.0380 C.ar    1  LIG1       -0.0058
      6  C5        32.0580    1.1840   27.0270 C.ar    1  LIG1        0.0241
      7  S1        30.5430    1.6890   27.4510 S.2     1  LIG1       -0.0874
      8  C6        29.7170    0.2510   27.1370 C.ar    1  LIG1        0.0313
      9  C7        28.2380    0.1050   27.2540 C.ar    1  LIG1       -0.0104
     10  C8        27.5750    1.2070   27.7570 C.ar    1  LIG1       -0.0501
     11  C9        26.1910    1.1730   27.8110 C.ar    1  LIG1       -0.0196
     12  C10       25.4810    0.0570   27.4150 C.ar    1  LIG1        0.1169
     13  O2        24.0890    0.1180   27.5020 O.3     1  LIG1       -0.5068
     14  C11       26.1420   -1.0240   26.8700 C.ar    1  LIG1       -0.0196
     15  C12       27.5290   -0.9750   26.8040 C.ar    1  LIG1       -0.0501
     16  C13       31.9800   -0.1480   26.5310 C.ar    1  LIG1        0.0008
     17  C14       30.6230   -0.6710   26.5710 C.ar    1  LIG1        0.0447
     18  C15       30.3000   -1.9320   26.1080 C.2     1  LIG1        0.1948
     19  O3        29.5110   -2.6320   26.7550 O.2     1  LIG1       -0.2866
     20  C16       30.8680   -2.4960   24.8780 C.ar    1  LIG1        0.0225
     21  C17       30.4460   -2.0530   23.6410 C.ar    1  LIG1       -0.0475
     22  C18       30.9480   -2.5730   22.4640 C.ar    1  LIG1       -0.0193
     23  C19       31.8900   -3.5980   22.5340 C.ar    1  LIG1        0.1206
     24  C20       32.3260   -4.0450   23.7680 C.ar    1  LIG1       -0.0193
     25  C21       31.8250   -3.4860   24.9330 C.ar    1  LIG1       -0.0475
     26  O4        32.5110   -4.2660   21.5200 O.3     1  LIG1       -0.4907
     27  C22       31.6750   -4.9950   20.6350 C.3     1  LIG1        0.1022
     28  C23       30.8520   -4.0530   19.7970 C.3     1  LIG1        0.0331
     29  N1        30.8300   -3.8930   18.3550 N.3     1  LIG1       -0.2991
     30  C24       30.3330   -5.1430   17.7450 C.3     1  LIG1       -0.0010
     31  C25       30.1180   -5.0480   16.2210 C.3     1  LIG1       -0.0402
     32  C26       31.4940   -4.7610   15.5980 C.3     1  LIG1       -0.0507
     33  C27       31.8660   -3.3490   16.1470 C.3     1  LIG1       -0.0402
     34  C28       32.0730   -3.4990   17.6640 C.3     1  LIG1       -0.0010
     35  H1        36.3650    1.3230   26.1960 H       1  LIG1        0.2921
     36  H2        23.6670    0.9310   27.6970 H       1  LIG1        0.2921
     37 H          33.0625   -1.6992   25.7046 H       1  LIG1        0.0625
     38 H          35.1462   -0.5440   25.7989 H       1  LIG1        0.0654
     39 H          33.2875    2.8503   27.3755 H       1  LIG1        0.0665
     40 H          28.0971    2.0348   28.0843 H       1  LIG1        0.0625
     41 H          25.6792    2.0005   28.1550 H       1  LIG1        0.0654
     42 H          25.6220   -1.8446   26.5217 H       1  LIG1        0.0654
     43 H          28.0397   -1.7774   26.4035 H       1  LIG1        0.0625
     44 H          29.7322   -1.3091   23.5939 H       1  LIG1        0.0626
     45 H          30.6320   -2.2099   21.5511 H       1  LIG1        0.0654
     46 H          33.0284   -4.7991   23.8216 H       1  LIG1        0.0654
     47 H          32.1712   -3.8135   25.8484 H       1  LIG1        0.0626
     48 H          31.0220   -5.6234   21.2038 H       1  LIG1        0.0709
     49 H          32.2869   -5.5900   19.9897 H       1  LIG1        0.0709
     50 H          31.1008   -3.0808   20.1683 H       1  LIG1        0.0460
     51 H          29.9058   -4.5400   19.9087 H       1  LIG1        0.0460
     52 H          29.3989   -5.3938   18.2027 H       1  LIG1        0.0427
     53 H          31.0820   -5.8894   17.9086 H       1  LIG1        0.0427
     54 H          29.4373   -4.2544   15.9933 H       1  LIG1        0.0278
     55 H          29.7015   -5.9544   15.8337 H       1  LIG1        0.0278
     56 H          31.4337   -4.7506   14.5297 H       1  LIG1        0.0266
     57 H          32.2223   -5.5051   15.8445 H       1  LIG1        0.0266
     58 H          31.0735   -2.6574   15.9505 H       1  LIG1        0.0278
     59 H          32.7508   -2.9757   15.6750 H       1  LIG1        0.0278
     60 H          32.8175   -4.2473   17.8388 H       1  LIG1        0.0427
     61 H          32.3800   -2.5499   18.0512 H       1  LIG1        0.0427
@<TRIPOS>BOND
     1     1     2   ar
     2     1    16   ar
     3     2     3   ar
     4     3     4    1
     5     3     5   ar
     6     4    35    1
     7     5     6   ar
     8     6     7   ar
     9     6    16   ar
    10     7     8   ar
    11     8     9    1
    12     8    17   ar
    13     9    10   ar
    14     9    15   ar
    15    10    11   ar
    16    11    12   ar
    17    12    13    1
    18    12    14   ar
    19    13    36    1
    20    14    15   ar
    21    16    17   ar
    22    17    18    1
    23    18    19    2
    24    18    20    1
    25    20    21   ar
    26    20    25   ar
    27    21    22   ar
    28    22    23   ar
    29    23    24   ar
    30    23    26    1
    31    24    25   ar
    32    26    27    1
    33    27    28    1
    34    28    29    1
    35    29    30    1
    36    29    34    1
    37    30    31    1
    38    31    32    1
    39    32    33    1
    40    33    34    1
    41     1    37    1
    42     2    38    1
    43     5    39    1
    44    10    40    1
    45    11    41    1
    46    14    42    1
    47    15    43    1
    48    21    44    1
    49    22    45    1
    50    24    46    1
    51    25    47    1
    52    27    48    1
    53    27    49    1
    54    28    50    1
    55    28    51    1
    56    30    52    1
    57    30    53    1
    58    31    54    1
    59    31    55    1
    60    32    56    1
    61    32    57    1
    62    33    58    1
    63    33    59    1
    64    34    60    1
    65    34    61    1
