@<TRIPOS>MOLECULE
pose5.pdb
 61 65 0 0 0
SMALL
GASTEIGER

@<TRIPOS>ATOM
      1  C1        31.8910   -2.5250   25.7470 C.ar    1  LIG1       -0.0494
      2  C2        32.7820   -2.8510   24.7570 C.ar    1  LIG1       -0.0195
      3  C3        32.5120   -2.6550   23.4320 C.ar    1  LIG1        0.1180
      4  O1        33.5000   -2.9960   22.5420 O.3     1  LIG1       -0.5067
      5  C4        31.2890   -2.0840   23.0600 C.ar    1  LIG1       -0.0058
      6  C5        30.4140   -1.7270   24.0560 C.ar    1  LIG1        0.0241
      7  S1        28.8940   -1.0870   23.9400 S.2     1  LIG1       -0.0874
      8  C6        28.5610   -0.9680   25.5910 C.ar    1  LIG1        0.0313
      9  C7        27.2480   -0.5200   26.1380 C.ar    1  LIG1       -0.0104
     10  C8        26.1400   -1.1320   25.5870 C.ar    1  LIG1       -0.0501
     11  C9        24.8930   -0.8270   26.1090 C.ar    1  LIG1       -0.0196
     12  C10       24.7430    0.0940   27.1270 C.ar    1  LIG1        0.1169
     13  O2        23.4480    0.3330   27.5900 O.3     1  LIG1       -0.5068
     14  C11       25.8550    0.6690   27.7070 C.ar    1  LIG1       -0.0196
     15  C12       27.1020    0.3440   27.1880 C.ar    1  LIG1       -0.0501
     16  C13       30.7150   -1.9590   25.4280 C.ar    1  LIG1        0.0008
     17  C14       29.6310   -1.5450   26.3060 C.ar    1  LIG1        0.0447
     18  C15       29.6860   -1.7060   27.6770 C.2     1  LIG1        0.1948
     19  O3        28.7850   -2.3300   28.2500 O.2     1  LIG1       -0.2866
     20  C16       30.7670   -1.1520   28.5000 C.ar    1  LIG1        0.0225
     21  C17       31.9000   -0.6260   27.9120 C.ar    1  LIG1       -0.0475
     22  C18       32.9420   -0.1110   28.6570 C.ar    1  LIG1       -0.0193
     23  C19       32.8550   -0.1520   30.0480 C.ar    1  LIG1        0.1206
     24  C20       31.7210   -0.6700   30.6480 C.ar    1  LIG1       -0.0193
     25  C21       30.6790   -1.1550   29.8760 C.ar    1  LIG1       -0.0475
     26  O4        33.7530    0.2800   30.9790 O.3     1  LIG1       -0.4907
     27  C22       35.1000   -0.1310   30.8010 C.3     1  LIG1        0.1022
     28  C23       35.7630    0.7000   29.7350 C.3     1  LIG1        0.0331
     29  N1        35.2250    1.1660   28.4710 N.3     1  LIG1       -0.2991
     30  C24       35.7520    0.3130   27.3860 C.3     1  LIG1       -0.0010
     31  C25       35.1350    0.6120   26.0050 C.3     1  LIG1       -0.0402
     32  C26       35.5080    2.0620   25.6570 C.3     1  LIG1       -0.0507
     33  C27       34.7680    2.9080   26.7380 C.3     1  LIG1       -0.0402
     34  C28       35.4220    2.5780   28.0910 C.3     1  LIG1       -0.0010
     35  H1        33.8260   -2.3580   21.9380 H       1  LIG1        0.2921
     36  H2        23.0750    1.1890   27.5180 H       1  LIG1        0.2921
     37 H          32.1232   -2.7139   26.7346 H       1  LIG1        0.0625
     38 H          33.6914   -3.2601   25.0229 H       1  LIG1        0.0654
     39 H          31.0522   -1.9358   22.0665 H       1  LIG1        0.0665
     40 H          26.2378   -1.7997   24.8062 H       1  LIG1        0.0625
     41 H          24.0577   -1.2987   25.7284 H       1  LIG1        0.0654
     42 H          25.7632    1.3206   28.5020 H       1  LIG1        0.0654
     43 H          27.9442    0.7677   27.6078 H       1  LIG1        0.0625
     44 H          31.9703   -0.6175   26.8824 H       1  LIG1        0.0626
     45 H          33.7691    0.2964   28.1934 H       1  LIG1        0.0654
     46 H          31.6514   -0.6950   31.6773 H       1  LIG1        0.0654
     47 H          29.8299   -1.5216   30.3340 H       1  LIG1        0.0626
     48 H          35.1194   -1.1603   30.5093 H       1  LIG1        0.0709
     49 H          35.6283   -0.0013   31.7224 H       1  LIG1        0.0709
     50 H          36.6318    0.1381   29.4626 H       1  LIG1        0.0460
     51 H          35.7621    1.6364   30.2527 H       1  LIG1        0.0460
     52 H          35.5503   -0.7087   27.6317 H       1  LIG1        0.0427
     53 H          36.7998    0.5164   27.3102 H       1  LIG1        0.0427
     54 H          34.0712    0.5049   26.0458 H       1  LIG1        0.0278
     55 H          35.5027   -0.0675   25.2647 H       1  LIG1        0.0278
     56 H          35.1683    2.3175   24.6750 H       1  LIG1        0.0266
     57 H          36.5651    2.2276   25.6551 H       1  LIG1        0.0266
     58 H          33.7296    2.6506   26.7590 H       1  LIG1        0.0278
     59 H          34.8422    3.9534   26.5223 H       1  LIG1        0.0278
     60 H          36.4717    2.7744   28.0242 H       1  LIG1        0.0427
     61 H          34.9604    3.1887   28.8386 H       1  LIG1        0.0427
@<TRIPOS>BOND
     1     1     2   ar
     2     1    16   ar
     3     2     3   ar
     4     3     4    1
     5     3     5   ar
     6     4    35    1
     7     5     6   ar
     8     6     7   ar
     9     6    16   ar
    10     7     8   ar
    11     8     9    1
    12     8    17   ar
    13     9    10   ar
    14     9    15   ar
    15    10    11   ar
    16    11    12   ar
    17    12    13    1
    18    12    14   ar
    19    13    36    1
    20    14    15   ar
    21    16    17   ar
    22    17    18    1
    23    18    19    2
    24    18    20    1
    25    20    21   ar
    26    20    25   ar
    27    21    22   ar
    28    22    23   ar
    29    23    24   ar
    30    23    26    1
    31    24    25   ar
    32    26    27    1
    33    27    28    1
    34    28    29    1
    35    29    30    1
    36    29    34    1
    37    30    31    1
    38    31    32    1
    39    32    33    1
    40    33    34    1
    41     1    37    1
    42     2    38    1
    43     5    39    1
    44    10    40    1
    45    11    41    1
    46    14    42    1
    47    15    43    1
    48    21    44    1
    49    22    45    1
    50    24    46    1
    51    25    47    1
    52    27    48    1
    53    27    49    1
    54    28    50    1
    55    28    51    1
    56    30    52    1
    57    30    53    1
    58    31    54    1
    59    31    55    1
    60    32    56    1
    61    32    57    1
    62    33    58    1
    63    33    59    1
    64    34    60    1
    65    34    61    1
