@<TRIPOS>MOLECULE
pose2.pdb
 61 65 0 0 0
SMALL
GASTEIGER

@<TRIPOS>ATOM
      1  C1        32.9250   -0.3720   28.7370 C.ar    1  LIG1       -0.0494
      2  C2        33.9480    0.4410   29.1500 C.ar    1  LIG1       -0.0195
      3  C3        33.7540    1.7530   29.4820 C.ar    1  LIG1        0.1180
      4  O1        34.8560    2.4510   29.9090 O.3     1  LIG1       -0.5067
      5  C4        32.4640    2.2920   29.4190 C.ar    1  LIG1       -0.0058
      6  C5        31.4370    1.4640   29.0380 C.ar    1  LIG1        0.0241
      7  S1        29.8350    1.8090   28.8220 S.2     1  LIG1       -0.0874
      8  C6        29.3200    0.2670   28.3680 C.ar    1  LIG1        0.0313
      9  C7        27.9260   -0.0470   27.9440 C.ar    1  LIG1       -0.0104
     10  C8        27.4560    0.6860   26.8720 C.ar    1  LIG1       -0.0501
     11  C9        26.2000    0.3860   26.3700 C.ar    1  LIG1       -0.0196
     12  C10       25.4100   -0.5910   26.9420 C.ar    1  LIG1        0.1169
     13  O2        24.1600   -0.8260   26.3650 O.3     1  LIG1       -0.5068
     14  C11       25.8980   -1.3530   27.9830 C.ar    1  LIG1       -0.0196
     15  C12       27.1660   -1.0560   28.4690 C.ar    1  LIG1       -0.0501
     16  C13       31.6700    0.1060   28.6820 C.ar    1  LIG1        0.0008
     17  C14       30.4510   -0.5710   28.2700 C.ar    1  LIG1        0.0447
     18  C15       30.4400   -1.8860   27.8460 C.2     1  LIG1        0.1948
     19  O3        29.9310   -2.7520   28.5690 O.2     1  LIG1       -0.2866
     20  C16       31.0240   -2.3150   26.5700 C.ar    1  LIG1        0.0225
     21  C17       31.1190   -1.4370   25.5100 C.ar    1  LIG1       -0.0475
     22  C18       31.6500   -1.8120   24.2910 C.ar    1  LIG1       -0.0193
     23  C19       32.0750   -3.1290   24.1230 C.ar    1  LIG1        0.1206
     24  C20       31.9910   -4.0160   25.1810 C.ar    1  LIG1       -0.0193
     25  C21       31.4800   -3.6050   26.4010 C.ar    1  LIG1       -0.0475
     26  O4        32.6140   -3.7250   23.0210 O.3     1  LIG1       -0.4907
     27  C22       32.3740   -3.0900   21.7740 C.3     1  LIG1        0.1022
     28  C23       31.3810   -3.8820   20.9660 C.3     1  LIG1        0.0331
     29  N1        30.7820   -3.5620   19.6850 N.3     1  LIG1       -0.2991
     30  C24       31.6710   -4.0470   18.6090 C.3     1  LIG1       -0.0010
     31  C25       31.0730   -3.9020   17.1950 C.3     1  LIG1       -0.0402
     32  C26       30.8600   -2.3980   16.9570 C.3     1  LIG1       -0.0507
     33  C27       29.7790   -2.0010   18.0090 C.3     1  LIG1       -0.0402
     34  C28       30.4250   -2.1590   19.3970 C.3     1  LIG1       -0.0010
     35  H1        35.6740    2.0090   30.0290 H       1  LIG1        0.2921
     36  H2        23.8330   -1.7010   26.2950 H       1  LIG1        0.2921
     37 H          33.1179   -1.3496   28.4687 H       1  LIG1        0.0625
     38 H          34.9003    0.0483   29.2127 H       1  LIG1        0.0654
     39 H          32.2898    3.2822   29.6519 H       1  LIG1        0.0665
     40 H          28.0262    1.4385   26.4552 H       1  LIG1        0.0625
     41 H          25.8472    0.9044   25.5503 H       1  LIG1        0.0654
     42 H          25.3390   -2.1199   28.3885 H       1  LIG1        0.0654
     43 H          27.5457   -1.6138   29.2498 H       1  LIG1        0.0625
     44 H          30.7826   -0.4690   25.6316 H       1  LIG1        0.0626
     45 H          31.7304   -1.1307   23.5201 H       1  LIG1        0.0654
     46 H          32.3109   -4.9897   25.0607 H       1  LIG1        0.0654
     47 H          31.4403   -4.2695   27.1896 H       1  LIG1        0.0626
     48 H          33.2935   -3.0189   21.2315 H       1  LIG1        0.0709
     49 H          31.9766   -2.1127   21.9523 H       1  LIG1        0.0709
     50 H          30.5472   -4.0123   21.6238 H       1  LIG1        0.0460
     51 H          32.0409   -4.6561   20.6341 H       1  LIG1        0.0460
     52 H          31.8779   -5.0822   18.7833 H       1  LIG1        0.0427
     53 H          32.5535   -3.4426   18.6377 H       1  LIG1        0.0427
     54 H          30.1391   -4.4207   17.1347 H       1  LIG1        0.0278
     55 H          31.7252   -4.3197   16.4568 H       1  LIG1        0.0278
     56 H          30.5087   -2.2159   15.9629 H       1  LIG1        0.0266
     57 H          31.7624   -1.8322   17.0591 H       1  LIG1        0.0266
     58 H          28.9288   -2.6450   17.9236 H       1  LIG1        0.0278
     59 H          29.4456   -0.9961   17.8544 H       1  LIG1        0.0278
     60 H          31.3123   -1.5621   19.4349 H       1  LIG1        0.0427
     61 H          29.7133   -1.8421   20.1305 H       1  LIG1        0.0427
@<TRIPOS>BOND
     1     1     2   ar
     2     1    16   ar
     3     2     3   ar
     4     3     4    1
     5     3     5   ar
     6     4    35    1
     7     5     6   ar
     8     6     7   ar
     9     6    16   ar
    10     7     8   ar
    11     8     9    1
    12     8    17   ar
    13     9    10   ar
    14     9    15   ar
    15    10    11   ar
    16    11    12   ar
    17    12    13    1
    18    12    14   ar
    19    13    36    1
    20    14    15   ar
    21    16    17   ar
    22    17    18    1
    23    18    19    2
    24    18    20    1
    25    20    21   ar
    26    20    25   ar
    27    21    22   ar
    28    22    23   ar
    29    23    24   ar
    30    23    26    1
    31    24    25   ar
    32    26    27    1
    33    27    28    1
    34    28    29    1
    35    29    30    1
    36    29    34    1
    37    30    31    1
    38    31    32    1
    39    32    33    1
    40    33    34    1
    41     1    37    1
    42     2    38    1
    43     5    39    1
    44    10    40    1
    45    11    41    1
    46    14    42    1
    47    15    43    1
    48    21    44    1
    49    22    45    1
    50    24    46    1
    51    25    47    1
    52    27    48    1
    53    27    49    1
    54    28    50    1
    55    28    51    1
    56    30    52    1
    57    30    53    1
    58    31    54    1
    59    31    55    1
    60    32    56    1
    61    32    57    1
    62    33    58    1
    63    33    59    1
    64    34    60    1
    65    34    61    1
