612.pdb
  rDOCK(R)          3D
libRbt.so/2013.1/901 2013/11/27
 23 24  0  0  0  0  0  0  0  0999 V2000
    1.5435  -36.5775   24.8692 C   0  0  0  0  0  0
    2.8487  -37.3319   24.6635 C   0  0  0  0  0  0
    3.3543  -37.1597   23.2552 C   0  0  0  0  0  0
    2.3064  -37.6166   22.2451 C   0  0  0  0  0  0
    1.0076  -36.8466   22.4459 C   0  0  0  0  0  0
    0.5024  -37.0395   23.8590 C   0  0  0  0  0  0
    0.9758  -37.0415   26.5439 S   0  0  0  0  0  0
    0.1660  -35.5582   27.3203 C   0  0  0  0  0  0
    0.9093  -34.6225   28.0262 C   0  0  0  0  0  0
    2.4464  -34.5280   27.9965 C   0  0  0  0  0  0
    3.0982  -34.4533   29.3572 C   0  0  0  0  0  0
    2.9707  -33.5364   27.0149 C   0  0  0  0  0  0
    0.2330  -33.5226   28.6928 C   0  0  0  0  0  0
    0.8079  -32.6877   29.3790 O   0  0  0  0  0  0
   -1.2334  -35.4400   27.2232 N   0  0  0  0  0  0
   -1.9345  -34.3824   27.8361 C   0  0  0  0  0  0
   -3.1536  -34.2525   27.7437 O   0  0  0  0  0  0
   -1.1565  -33.4828   28.5494 N   0  0  0  0  0  0
   -2.0545  -36.3896   26.4300 C   0  0  0  0  0  0
   -1.9630  -36.1283   25.0339 O   0  0  0  0  0  0
   -2.4481  -34.8222   24.7084 C   0  0  0  0  0  0
   -2.2996  -34.5473   23.2324 C   0  0  0  0  0  0
   -1.6288  -32.7449   28.9982 H   0  0  0  0  0  0
  1  2  1  0  0  0
  1  6  1  0  0  0
  1  7  1  0  0  0
  2  3  1  0  0  0
  3  4  1  0  0  0
  4  5  1  0  0  0
  5  6  1  0  0  0
  7  8  1  0  0  0
  8  9  2  0  0  0
  8 15  1  0  0  0
  9 10  1  0  0  0
  9 13  1  0  0  0
 10 11  1  0  0  0
 10 12  1  0  0  0
 13 14  2  0  0  0
 13 18  1  0  0  0
 15 16  1  0  0  0
 15 19  1  0  0  0
 16 17  2  0  0  0
 16 18  1  0  0  0
 18 23  1  0  0  0
 19 20  1  0  0  0
 20 21  1  0  0  0
 21 22  1  0  0  0
M  END
>  <CHROM.0>
-178.07068824,57.00511616,-23.32849194

>  <CHROM.1>
144.17492838,-87.57044387,-130.51308457,-76.87062379,-61.52124825,178.08715053
0.32379898,-35.43733417,26.20799988,-1.28433757,-0.15587182,1.05471611

>  <FORMUL>
      612    C16 H26 N2 O3 S1

>  <HET>
 612  A 999      22

>  <HETNAM>
     612 6-(cyclohexylsulfanyl)-1-(ethoxymethyl)-5-(1-methylethy
   2 612 l)pyrimidine-2,4(1H,3H)-dione

>  <HETSYN>
     612 TNK-6123

>  <Name>
612.pdb

>  <RI>
0

>  <Rbt.Current_Directory>
/home/malgorzata/Desktop/rDOCK_IFD/Wyniki/9a_hiv_rt/IFD

>  <Rbt.Executable>
rbdock ($Id: //depot/dev/client3/rdock/2013.1/src/exe/rbdock.cxx#4 $)

>  <Rbt.Library>
libRbt.so (2013.1, Build901 2013/11/27)

>  <Rbt.Parameter_File>
/home/malgorzata/Desktop/rDock_2013.1_src/data/scripts/hard_docking.prm

>  <Rbt.Receptor>
cavity.prm

>  <SCORE>
-13.8584

>  <SCORE.INTER>
-12.198

>  <SCORE.INTER.CONST>
1

>  <SCORE.INTER.POLAR>
0

>  <SCORE.INTER.REPUL>
0

>  <SCORE.INTER.ROT>
6

>  <SCORE.INTER.VDW>
-23.598

>  <SCORE.INTER.norm>
-0.554453

>  <SCORE.INTRA>
-2.01408

>  <SCORE.INTRA.DIHEDRAL>
-4.88443

>  <SCORE.INTRA.DIHEDRAL.0>
11.8882

>  <SCORE.INTRA.POLAR>
0

>  <SCORE.INTRA.POLAR.0>
0

>  <SCORE.INTRA.REPUL>
0

>  <SCORE.INTRA.REPUL.0>
0

>  <SCORE.INTRA.VDW>
0.428136

>  <SCORE.INTRA.VDW.0>
-3.04122

>  <SCORE.INTRA.norm>
-0.091549

>  <SCORE.RESTR>
0

>  <SCORE.RESTR.CAVITY>
0

>  <SCORE.RESTR.norm>
0

>  <SCORE.SYSTEM>
0.353679

>  <SCORE.SYSTEM.CONST>
0

>  <SCORE.SYSTEM.DIHEDRAL>
4.13622

>  <SCORE.SYSTEM.REPUL>
0.245241

>  <SCORE.SYSTEM.VDW>
-2.94063

>  <SCORE.SYSTEM.norm>
0.0160763

>  <SCORE.heavy>
22

>  <SCORE.norm>
-0.629926

$$$$
612.pdb
  rDOCK(R)          3D
libRbt.so/2013.1/901 2013/11/27
 23 24  0  0  0  0  0  0  0  0999 V2000
   -2.1897  -33.8831   26.5073 C   0  0  0  0  0  0
   -2.4560  -34.0338   27.9977 C   0  0  0  0  0  0
   -2.1949  -32.7410   28.7251 C   0  0  0  0  0  0
   -0.7669  -32.2627   28.4815 C   0  0  0  0  0  0
   -0.5118  -32.0986   26.9889 C   0  0  0  0  0  0
   -0.7629  -33.4070   26.2720 C   0  0  0  0  0  0
   -2.3645  -35.5650   25.8126 S   0  0  0  0  0  0
   -1.8349  -35.5212   24.0303 C   0  0  0  0  0  0
   -2.6325  -34.9319   23.0593 C   0  0  0  0  0  0
   -3.8370  -34.0191   23.3565 C   0  0  0  0  0  0
   -5.1609  -34.5396   22.8485 C   0  0  0  0  0  0
   -3.5921  -32.5802   23.0546 C   0  0  0  0  0  0
   -2.2288  -34.9918   21.6647 C   0  0  0  0  0  0
   -2.9004  -34.5459   20.7435 O   0  0  0  0  0  0
   -0.6274  -36.1553   23.6817 N   0  0  0  0  0  0
   -0.1828  -36.2248   22.3463 C   0  0  0  0  0  0
    0.8789  -36.7562   22.0270 O   0  0  0  0  0  0
   -1.0200  -35.6433   21.4059 N   0  0  0  0  0  0
    0.2784  -36.7464   24.6991 C   0  0  0  0  0  0
    0.6758  -35.7877   25.6730 O   0  0  0  0  0  0
    1.4386  -36.3882   26.7242 C   0  0  0  0  0  0
    1.8268  -35.3614   27.7591 C   0  0  0  0  0  0
   -0.7350  -35.6945   20.4650 H   0  0  0  0  0  0
  1  2  1  0  0  0
  1  6  1  0  0  0
  1  7  1  0  0  0
  2  3  1  0  0  0
  3  4  1  0  0  0
  4  5  1  0  0  0
  5  6  1  0  0  0
  7  8  1  0  0  0
  8  9  2  0  0  0
  8 15  1  0  0  0
  9 10  1  0  0  0
  9 13  1  0  0  0
 10 11  1  0  0  0
 10 12  1  0  0  0
 13 14  2  0  0  0
 13 18  1  0  0  0
 15 16  1  0  0  0
 15 19  1  0  0  0
 16 17  2  0  0  0
 16 18  1  0  0  0
 18 23  1  0  0  0
 19 20  1  0  0  0
 20 21  1  0  0  0
 21 22  1  0  0  0
M  END
>  <CHROM.0>
178.54892684,-166.53863652,-24.40111661

>  <CHROM.1>
-172.56841962,-73.35280679,-118.44625890,-56.72450342,174.20319270,-178.88888122
-1.39731434,-34.78436327,24.77893571,1.25120744,-0.54613415,1.17823145

>  <FORMUL>
      612    C16 H26 N2 O3 S1

>  <HET>
 612  A 999      22

>  <HETNAM>
     612 6-(cyclohexylsulfanyl)-1-(ethoxymethyl)-5-(1-methylethy
   2 612 l)pyrimidine-2,4(1H,3H)-dione

>  <HETSYN>
     612 TNK-6123

>  <Name>
612.pdb

>  <RI>
0

>  <Rbt.Current_Directory>
/home/malgorzata/Desktop/rDOCK_IFD/Wyniki/9a_hiv_rt/IFD

>  <Rbt.Executable>
rbdock ($Id: //depot/dev/client3/rdock/2013.1/src/exe/rbdock.cxx#4 $)

>  <Rbt.Library>
libRbt.so (2013.1, Build901 2013/11/27)

>  <Rbt.Parameter_File>
/home/malgorzata/Desktop/rDock_2013.1_src/data/scripts/hard_docking.prm

>  <Rbt.Receptor>
cavity.prm

>  <SCORE>
-13.546

>  <SCORE.INTER>
-9.7277

>  <SCORE.INTER.CONST>
1

>  <SCORE.INTER.POLAR>
0

>  <SCORE.INTER.REPUL>
0

>  <SCORE.INTER.ROT>
6

>  <SCORE.INTER.VDW>
-21.1277

>  <SCORE.INTER.norm>
-0.442168

>  <SCORE.INTRA>
-3.61757

>  <SCORE.INTRA.DIHEDRAL>
-6.48039

>  <SCORE.INTRA.DIHEDRAL.0>
11.8882

>  <SCORE.INTRA.POLAR>
0

>  <SCORE.INTRA.POLAR.0>
0

>  <SCORE.INTRA.REPUL>
0

>  <SCORE.INTRA.REPUL.0>
0

>  <SCORE.INTRA.VDW>
-0.377379

>  <SCORE.INTRA.VDW.0>
-3.04122

>  <SCORE.INTRA.norm>
-0.164435

>  <SCORE.RESTR>
0

>  <SCORE.RESTR.CAVITY>
0

>  <SCORE.RESTR.norm>
0

>  <SCORE.SYSTEM>
-0.20075

>  <SCORE.SYSTEM.CONST>
0

>  <SCORE.SYSTEM.DIHEDRAL>
1.08216

>  <SCORE.SYSTEM.VDW>
-0.741831

>  <SCORE.SYSTEM.norm>
-0.00912501

>  <SCORE.heavy>
22

>  <SCORE.norm>
-0.615728

$$$$
612.pdb
  rDOCK(R)          3D
libRbt.so/2013.1/901 2013/11/27
 23 24  0  0  0  0  0  0  0  0999 V2000
    7.0693  -33.9954   22.1454 C   0  0  0  0  0  0
    6.5173  -34.4039   20.7876 C   0  0  0  0  0  0
    7.0212  -33.4879   19.7034 C   0  0  0  0  0  0
    6.6643  -32.0372   20.0124 C   0  0  0  0  0  0
    7.2332  -31.6296   21.3653 C   0  0  0  0  0  0
    6.7083  -32.5475   22.4475 C   0  0  0  0  0  0
    6.2214  -35.0716   23.3556 S   0  0  0  0  0  0
    6.4720  -36.8417   22.8428 C   0  0  0  0  0  0
    7.7187  -37.3033   22.4441 C   0  0  0  0  0  0
    9.0400  -36.5412   22.6584 C   0  0  0  0  0  0
    9.7353  -36.1180   21.3859 C   0  0  0  0  0  0
    9.9420  -37.1693   23.6652 C   0  0  0  0  0  0
    7.8605  -38.6688   21.9678 C   0  0  0  0  0  0
    8.9112  -39.1360   21.5480 O   0  0  0  0  0  0
    5.3482  -37.6888   22.8132 N   0  0  0  0  0  0
    5.4364  -39.0259   22.3768 C   0  0  0  0  0  0
    4.4696  -39.7852   22.3644 O   0  0  0  0  0  0
    6.6950  -39.4396   21.9667 N   0  0  0  0  0  0
    4.0114  -37.2469   23.2850 C   0  0  0  0  0  0
    3.4723  -38.1385   24.2546 O   0  0  0  0  0  0
    2.1460  -37.7624   24.6376 C   0  0  0  0  0  0
    1.5589  -38.7687   25.5962 C   0  0  0  0  0  0
    6.7749  -40.3661   21.6435 H   0  0  0  0  0  0
  1  2  1  0  0  0
  1  6  1  0  0  0
  1  7  1  0  0  0
  2  3  1  0  0  0
  3  4  1  0  0  0
  4  5  1  0  0  0
  5  6  1  0  0  0
  7  8  1  0  0  0
  8  9  2  0  0  0
  8 15  1  0  0  0
  9 10  1  0  0  0
  9 13  1  0  0  0
 10 11  1  0  0  0
 10 12  1  0  0  0
 13 14  2  0  0  0
 13 18  1  0  0  0
 15 16  1  0  0  0
 15 19  1  0  0  0
 16 17  2  0  0  0
 16 18  1  0  0  0
 18 23  1  0  0  0
 19 20  1  0  0  0
 20 21  1  0  0  0
 21 22  1  0  0  0
M  END
>  <CHROM.0>
-164.88394966,-0.20567749,-175.19451089

>  <CHROM.1>
54.14532150,45.05939686,-115.83036557,-126.50081416,-175.89632584,176.28927942
6.33803657,-36.44963513,22.50213343,0.93763664,0.35232744,-0.21039351

>  <FORMUL>
      612    C16 H26 N2 O3 S1

>  <HET>
 612  A 999      22

>  <HETNAM>
     612 6-(cyclohexylsulfanyl)-1-(ethoxymethyl)-5-(1-methylethy
   2 612 l)pyrimidine-2,4(1H,3H)-dione

>  <HETSYN>
     612 TNK-6123

>  <Name>
612.pdb

>  <RI>
0

>  <Rbt.Current_Directory>
/home/malgorzata/Desktop/rDOCK_IFD/Wyniki/9a_hiv_rt/IFD

>  <Rbt.Executable>
rbdock ($Id: //depot/dev/client3/rdock/2013.1/src/exe/rbdock.cxx#4 $)

>  <Rbt.Library>
libRbt.so (2013.1, Build901 2013/11/27)

>  <Rbt.Parameter_File>
/home/malgorzata/Desktop/rDock_2013.1_src/data/scripts/hard_docking.prm

>  <Rbt.Receptor>
cavity.prm

>  <SCORE>
-24.2611

>  <SCORE.INTER>
-2.32137

>  <SCORE.INTER.CONST>
1

>  <SCORE.INTER.POLAR>
0

>  <SCORE.INTER.REPUL>
0

>  <SCORE.INTER.ROT>
6

>  <SCORE.INTER.VDW>
-13.7214

>  <SCORE.INTER.norm>
-0.105517

>  <SCORE.INTRA>
-2.66794

>  <SCORE.INTRA.DIHEDRAL>
-6.58012

>  <SCORE.INTRA.DIHEDRAL.0>
11.8882

>  <SCORE.INTRA.POLAR>
0

>  <SCORE.INTRA.POLAR.0>
0

>  <SCORE.INTRA.REPUL>
0

>  <SCORE.INTRA.REPUL.0>
0

>  <SCORE.INTRA.VDW>
0.622123

>  <SCORE.INTRA.VDW.0>
-3.04122

>  <SCORE.INTRA.norm>
-0.12127

>  <SCORE.RESTR>
1.8942

>  <SCORE.RESTR.CAVITY>
1.8942

>  <SCORE.RESTR.norm>
0.0861001

>  <SCORE.SYSTEM>
-21.166

>  <SCORE.SYSTEM.CONST>
0

>  <SCORE.SYSTEM.DIHEDRAL>
0.354541

>  <SCORE.SYSTEM.POLAR>
-0.602679

>  <SCORE.SYSTEM.VDW>
-19.2942

>  <SCORE.SYSTEM.norm>
-0.962093

>  <SCORE.heavy>
22

>  <SCORE.norm>
-1.10278

$$$$
612.pdb
  rDOCK(R)          3D
libRbt.so/2013.1/901 2013/11/27
 23 24  0  0  0  0  0  0  0  0999 V2000
    7.8874  -39.2599   22.9079 C   0  0  0  0  0  0
    8.7661  -38.7610   24.0455 C   0  0  0  0  0  0
    8.9463  -39.8268   25.0943 C   0  0  0  0  0  0
    7.5955  -40.2953   25.6265 C   0  0  0  0  0  0
    6.7268  -40.8081   24.4852 C   0  0  0  0  0  0
    6.5411  -39.7242   23.4461 C   0  0  0  0  0  0
    7.6150  -37.8057   21.8340 S   0  0  0  0  0  0
    5.8898  -37.8998   21.1460 C   0  0  0  0  0  0
    5.6390  -38.4949   19.9175 C   0  0  0  0  0  0
    6.6449  -39.3771   19.1545 C   0  0  0  0  0  0
    7.0210  -40.6578   19.8617 C   0  0  0  0  0  0
    7.8055  -38.6254   18.5980 C   0  0  0  0  0  0
    4.2928  -38.4742   19.3708 C   0  0  0  0  0  0
    3.9988  -38.9274   18.2723 O   0  0  0  0  0  0
    4.8499  -37.2974   21.8790 N   0  0  0  0  0  0
    3.5245  -37.2666   21.4012 C   0  0  0  0  0  0
    2.6009  -36.7634   22.0378 O   0  0  0  0  0  0
    3.3220  -37.8525   20.1606 N   0  0  0  0  0  0
    5.0700  -36.7015   23.2212 C   0  0  0  0  0  0
    6.3313  -36.0479   23.3083 O   0  0  0  0  0  0
    6.3887  -34.8965   22.4609 C   0  0  0  0  0  0
    7.7131  -34.1888   22.6066 C   0  0  0  0  0  0
    2.4057  -37.8280   19.8016 H   0  0  0  0  0  0
  1  2  1  0  0  0
  1  6  1  0  0  0
  1  7  1  0  0  0
  2  3  1  0  0  0
  3  4  1  0  0  0
  4  5  1  0  0  0
  5  6  1  0  0  0
  7  8  1  0  0  0
  8  9  2  0  0  0
  8 15  1  0  0  0
  9 10  1  0  0  0
  9 13  1  0  0  0
 10 11  1  0  0  0
 10 12  1  0  0  0
 13 14  2  0  0  0
 13 18  1  0  0  0
 15 16  1  0  0  0
 15 19  1  0  0  0
 16 17  2  0  0  0
 16 18  1  0  0  0
 18 23  1  0  0  0
 19 20  1  0  0  0
 20 21  1  0  0  0
 21 22  1  0  0  0
M  END
>  <CHROM.0>
-168.79915579,0.10333641,-20.79531219

>  <CHROM.1>
-144.55116769,-93.02469192,63.75012634,37.43574494,66.55969528,177.86294156
6.21887549,-38.13432981,21.86262254,-0.41468394,0.85018462,-2.36270854

>  <FORMUL>
      612    C16 H26 N2 O3 S1

>  <HET>
 612  A 999      22

>  <HETNAM>
     612 6-(cyclohexylsulfanyl)-1-(ethoxymethyl)-5-(1-methylethy
   2 612 l)pyrimidine-2,4(1H,3H)-dione

>  <HETSYN>
     612 TNK-6123

>  <Name>
612.pdb

>  <RI>
0

>  <Rbt.Current_Directory>
/home/malgorzata/Desktop/rDOCK_IFD/Wyniki/9a_hiv_rt/IFD

>  <Rbt.Executable>
rbdock ($Id: //depot/dev/client3/rdock/2013.1/src/exe/rbdock.cxx#4 $)

>  <Rbt.Library>
libRbt.so (2013.1, Build901 2013/11/27)

>  <Rbt.Parameter_File>
/home/malgorzata/Desktop/rDock_2013.1_src/data/scripts/hard_docking.prm

>  <Rbt.Receptor>
cavity.prm

>  <SCORE>
-12.3305

>  <SCORE.INTER>
1.66821

>  <SCORE.INTER.CONST>
1

>  <SCORE.INTER.POLAR>
0

>  <SCORE.INTER.REPUL>
0

>  <SCORE.INTER.ROT>
6

>  <SCORE.INTER.VDW>
-9.73179

>  <SCORE.INTER.norm>
0.0758279

>  <SCORE.INTRA>
-0.924531

>  <SCORE.INTRA.DIHEDRAL>
-4.66565

>  <SCORE.INTRA.DIHEDRAL.0>
11.8882

>  <SCORE.INTRA.POLAR>
0

>  <SCORE.INTRA.POLAR.0>
0

>  <SCORE.INTRA.REPUL>
0

>  <SCORE.INTRA.REPUL.0>
0

>  <SCORE.INTRA.VDW>
1.4083

>  <SCORE.INTRA.VDW.0>
-3.04122

>  <SCORE.INTRA.norm>
-0.0420241

>  <SCORE.RESTR>
7.61394

>  <SCORE.RESTR.CAVITY>
7.61394

>  <SCORE.RESTR.norm>
0.346088

>  <SCORE.SYSTEM>
-20.6882

>  <SCORE.SYSTEM.CONST>
0

>  <SCORE.SYSTEM.DIHEDRAL>
0.77765

>  <SCORE.SYSTEM.POLAR>
-0.57968

>  <SCORE.SYSTEM.REPUL>
0.0262934

>  <SCORE.SYSTEM.VDW>
-19.2375

>  <SCORE.SYSTEM.norm>
-0.940371

>  <SCORE.heavy>
22

>  <SCORE.norm>
-0.560479

$$$$
612.pdb
  rDOCK(R)          3D
libRbt.so/2013.1/901 2013/11/27
 23 24  0  0  0  0  0  0  0  0999 V2000
   -1.8567  -36.7879   25.0418 C   0  0  0  0  0  0
   -0.8614  -37.6481   24.2773 C   0  0  0  0  0  0
   -1.1780  -39.1116   24.4397 C   0  0  0  0  0  0
   -1.1991  -39.4995   25.9149 C   0  0  0  0  0  0
   -2.2086  -38.6459   26.6715 C   0  0  0  0  0  0
   -1.8713  -37.1796   26.5129 C   0  0  0  0  0  0
   -1.2260  -35.0778   24.9008 S   0  0  0  0  0  0
   -2.4779  -33.9271   25.6540 C   0  0  0  0  0  0
   -2.1860  -33.2001   26.7996 C   0  0  0  0  0  0
   -0.7715  -33.0229   27.3830 C   0  0  0  0  0  0
    0.2125  -32.3522   26.4535 C   0  0  0  0  0  0
   -0.2397  -34.2417   28.0561 C   0  0  0  0  0  0
   -3.2163  -32.3770   27.4100 C   0  0  0  0  0  0
   -3.0572  -31.7491   28.4487 O   0  0  0  0  0  0
   -3.7538  -33.8572   25.0634 N   0  0  0  0  0  0
   -4.7815  -33.0601   25.6060 C   0  0  0  0  0  0
   -5.8945  -32.9713   25.0914 O   0  0  0  0  0  0
   -4.4546  -32.3681   26.7625 N   0  0  0  0  0  0
   -4.0846  -34.5760   23.8069 C   0  0  0  0  0  0
   -3.2237  -34.1965   22.7390 O   0  0  0  0  0  0
   -3.2536  -32.7839   22.5135 C   0  0  0  0  0  0
   -4.5459  -32.3736   21.8519 C   0  0  0  0  0  0
   -5.1635  -31.8172   27.1664 H   0  0  0  0  0  0
  1  2  1  0  0  0
  1  6  1  0  0  0
  1  7  1  0  0  0
  2  3  1  0  0  0
  3  4  1  0  0  0
  4  5  1  0  0  0
  5  6  1  0  0  0
  7  8  1  0  0  0
  8  9  2  0  0  0
  8 15  1  0  0  0
  9 10  1  0  0  0
  9 13  1  0  0  0
 10 11  1  0  0  0
 10 12  1  0  0  0
 13 14  2  0  0  0
 13 18  1  0  0  0
 15 16  1  0  0  0
 15 19  1  0  0  0
 16 17  2  0  0  0
 16 18  1  0  0  0
 18 23  1  0  0  0
 19 20  1  0  0  0
 20 21  1  0  0  0
 21 22  1  0  0  0
M  END
>  <CHROM.0>
-171.74267733,-164.69256504,-23.45417277

>  <CHROM.1>
174.03914317,114.42306133,60.07106846,-57.86607616,-56.46709935,-73.43073701
-2.49628519,-34.59942306,25.46152451,0.81625538,0.92123075,-2.50725073

>  <FORMUL>
      612    C16 H26 N2 O3 S1

>  <HET>
 612  A 999      22

>  <HETNAM>
     612 6-(cyclohexylsulfanyl)-1-(ethoxymethyl)-5-(1-methylethy
   2 612 l)pyrimidine-2,4(1H,3H)-dione

>  <HETSYN>
     612 TNK-6123

>  <Name>
612.pdb

>  <RI>
0

>  <Rbt.Current_Directory>
/home/malgorzata/Desktop/rDOCK_IFD/Wyniki/9a_hiv_rt/IFD

>  <Rbt.Executable>
rbdock ($Id: //depot/dev/client3/rdock/2013.1/src/exe/rbdock.cxx#4 $)

>  <Rbt.Library>
libRbt.so (2013.1, Build901 2013/11/27)

>  <Rbt.Parameter_File>
/home/malgorzata/Desktop/rDock_2013.1_src/data/scripts/hard_docking.prm

>  <Rbt.Receptor>
cavity.prm

>  <SCORE>
-12.6228

>  <SCORE.INTER>
-11.0172

>  <SCORE.INTER.CONST>
1

>  <SCORE.INTER.POLAR>
-0.688125

>  <SCORE.INTER.REPUL>
0

>  <SCORE.INTER.ROT>
6

>  <SCORE.INTER.VDW>
-20.0775

>  <SCORE.INTER.norm>
-0.50078

>  <SCORE.INTRA>
-1.4504

>  <SCORE.INTRA.DIHEDRAL>
-5.79542

>  <SCORE.INTRA.DIHEDRAL.0>
11.8882

>  <SCORE.INTRA.POLAR>
0

>  <SCORE.INTRA.POLAR.0>
0

>  <SCORE.INTRA.REPUL>
0

>  <SCORE.INTRA.REPUL.0>
0

>  <SCORE.INTRA.VDW>
1.44731

>  <SCORE.INTRA.VDW.0>
-3.04122

>  <SCORE.INTRA.norm>
-0.0659273

>  <SCORE.RESTR>
0

>  <SCORE.RESTR.CAVITY>
0

>  <SCORE.RESTR.norm>
0

>  <SCORE.SYSTEM>
-0.155222

>  <SCORE.SYSTEM.CONST>
0

>  <SCORE.SYSTEM.DIHEDRAL>
1.18982

>  <SCORE.SYSTEM.REPUL>
0.00533206

>  <SCORE.SYSTEM.VDW>
-0.776792

>  <SCORE.SYSTEM.norm>
-0.00705553

>  <SCORE.heavy>
22

>  <SCORE.norm>
-0.573763

$$$$
612.pdb
  rDOCK(R)          3D
libRbt.so/2013.1/901 2013/11/27
 23 24  0  0  0  0  0  0  0  0999 V2000
    1.8342  -35.3212   26.9822 C   0  0  0  0  0  0
    0.6165  -34.4101   26.9364 C   0  0  0  0  0  0
    0.9740  -33.0110   27.3647 C   0  0  0  0  0  0
    1.5890  -33.0138   28.7608 C   0  0  0  0  0  0
    2.8164  -33.9150   28.7959 C   0  0  0  0  0  0
    2.4415  -35.3200   28.3782 C   0  0  0  0  0  0
    1.1974  -36.9973   26.6256 S   0  0  0  0  0  0
    0.6396  -37.0476   24.8522 C   0  0  0  0  0  0
    1.5413  -36.8743   23.8114 C   0  0  0  0  0  0
    3.0728  -36.9263   23.9670 C   0  0  0  0  0  0
    3.6172  -38.2727   24.3825 C   0  0  0  0  0  0
    3.6410  -35.7783   24.7290 C   0  0  0  0  0  0
    1.0580  -36.8332   22.4416 C   0  0  0  0  0  0
    1.7786  -36.6303   21.4730 O   0  0  0  0  0  0
   -0.7348  -37.2079   24.5937 N   0  0  0  0  0  0
   -1.2514  -37.1936   23.2827 C   0  0  0  0  0  0
   -2.4457  -37.3530   23.0381 O   0  0  0  0  0  0
   -0.3198  -36.9958   22.2747 N   0  0  0  0  0  0
   -1.7205  -37.4519   25.6772 C   0  0  0  0  0  0
   -1.6330  -38.7800   26.1815 O   0  0  0  0  0  0
   -2.8629  -39.1992   26.7805 C   0  0  0  0  0  0
   -3.0933  -38.4842   28.0889 C   0  0  0  0  0  0
   -0.6623  -36.9670   21.3522 H   0  0  0  0  0  0
  1  2  1  0  0  0
  1  6  1  0  0  0
  1  7  1  0  0  0
  2  3  1  0  0  0
  3  4  1  0  0  0
  4  5  1  0  0  0
  5  6  1  0  0  0
  7  8  1  0  0  0
  8  9  2  0  0  0
  8 15  1  0  0  0
  9 10  1  0  0  0
  9 13  1  0  0  0
 10 11  1  0  0  0
 10 12  1  0  0  0
 13 14  2  0  0  0
 13 18  1  0  0  0
 15 16  1  0  0  0
 15 19  1  0  0  0
 16 17  2  0  0  0
 16 18  1  0  0  0
 18 23  1  0  0  0
 19 20  1  0  0  0
 20 21  1  0  0  0
 21 22  1  0  0  0
M  END
>  <CHROM.0>
-151.56283189,-166.35771550,-177.00144423

>  <CHROM.1>
68.46736516,63.89440190,64.80428602,-74.00434684,-155.80757938,-71.51139681
0.58380665,-36.54894963,25.49586557,0.92519643,0.49538635,1.18997989

>  <FORMUL>
      612    C16 H26 N2 O3 S1

>  <HET>
 612  A 999      22

>  <HETNAM>
     612 6-(cyclohexylsulfanyl)-1-(ethoxymethyl)-5-(1-methylethy
   2 612 l)pyrimidine-2,4(1H,3H)-dione

>  <HETSYN>
     612 TNK-6123

>  <Name>
612.pdb

>  <RI>
0

>  <Rbt.Current_Directory>
/home/malgorzata/Desktop/rDOCK_IFD/Wyniki/9a_hiv_rt/IFD

>  <Rbt.Executable>
rbdock ($Id: //depot/dev/client3/rdock/2013.1/src/exe/rbdock.cxx#4 $)

>  <Rbt.Library>
libRbt.so (2013.1, Build901 2013/11/27)

>  <Rbt.Parameter_File>
/home/malgorzata/Desktop/rDock_2013.1_src/data/scripts/hard_docking.prm

>  <Rbt.Receptor>
cavity.prm

>  <SCORE>
-7.54463

>  <SCORE.INTER>
-8.7147

>  <SCORE.INTER.CONST>
1

>  <SCORE.INTER.POLAR>
0

>  <SCORE.INTER.REPUL>
0.0236962

>  <SCORE.INTER.ROT>
6

>  <SCORE.INTER.VDW>
-20.2332

>  <SCORE.INTER.norm>
-0.396123

>  <SCORE.INTRA>
1.31253

>  <SCORE.INTRA.DIHEDRAL>
-3.36691

>  <SCORE.INTRA.DIHEDRAL.0>
11.8882

>  <SCORE.INTRA.POLAR>
0

>  <SCORE.INTRA.POLAR.0>
0

>  <SCORE.INTRA.REPUL>
0

>  <SCORE.INTRA.REPUL.0>
0

>  <SCORE.INTRA.VDW>
2.99598

>  <SCORE.INTRA.VDW.0>
-3.04122

>  <SCORE.INTRA.norm>
0.0596605

>  <SCORE.RESTR>
0

>  <SCORE.RESTR.CAVITY>
0

>  <SCORE.RESTR.norm>
0

>  <SCORE.SYSTEM>
-0.142464

>  <SCORE.SYSTEM.CONST>
0

>  <SCORE.SYSTEM.DIHEDRAL>
1.36146

>  <SCORE.SYSTEM.VDW>
-0.823195

>  <SCORE.SYSTEM.norm>
-0.00647566

>  <SCORE.heavy>
22

>  <SCORE.norm>
-0.342938

$$$$
612.pdb
  rDOCK(R)          3D
libRbt.so/2013.1/901 2013/11/27
 23 24  0  0  0  0  0  0  0  0999 V2000
    8.6537  -36.8482   22.0817 C   0  0  0  0  0  0
    8.6499  -37.7519   23.3058 C   0  0  0  0  0  0
   10.0468  -37.9514   23.8326 C   0  0  0  0  0  0
   10.9568  -38.5212   22.7488 C   0  0  0  0  0  0
   10.9687  -37.6041   21.5327 C   0  0  0  0  0  0
    9.5625  -37.4236   21.0043 C   0  0  0  0  0  0
    6.9337  -36.8654   21.4628 S   0  0  0  0  0  0
    5.8225  -36.2064   22.8007 C   0  0  0  0  0  0
    6.0833  -34.9894   23.4149 C   0  0  0  0  0  0
    7.0842  -33.9438   22.8883 C   0  0  0  0  0  0
    8.2501  -33.6700   23.8089 C   0  0  0  0  0  0
    6.4411  -32.7167   22.3386 C   0  0  0  0  0  0
    5.2443  -34.5458   24.5152 C   0  0  0  0  0  0
    5.4389  -33.5140   25.1446 O   0  0  0  0  0  0
    4.7399  -37.0044   23.2162 N   0  0  0  0  0  0
    3.8861  -36.6109   24.2661 C   0  0  0  0  0  0
    2.9240  -37.2855   24.6275 O   0  0  0  0  0  0
    4.1954  -35.3996   24.8666 N   0  0  0  0  0  0
    4.3969  -38.2841   22.5457 C   0  0  0  0  0  0
    4.1570  -38.1037   21.1545 O   0  0  0  0  0  0
    3.9382  -39.3520   20.4903 C   0  0  0  0  0  0
    3.7160  -39.1418   19.0130 C   0  0  0  0  0  0
    3.6202  -35.1137   25.6126 H   0  0  0  0  0  0
  1  2  1  0  0  0
  1  6  1  0  0  0
  1  7  1  0  0  0
  2  3  1  0  0  0
  3  4  1  0  0  0
  4  5  1  0  0  0
  5  6  1  0  0  0
  7  8  1  0  0  0
  8  9  2  0  0  0
  8 15  1  0  0  0
  9 10  1  0  0  0
  9 13  1  0  0  0
 10 11  1  0  0  0
 10 12  1  0  0  0
 13 14  2  0  0  0
 13 18  1  0  0  0
 15 16  1  0  0  0
 15 19  1  0  0  0
 16 17  2  0  0  0
 16 18  1  0  0  0
 18 23  1  0  0  0
 19 20  1  0  0  0
 20 21  1  0  0  0
 21 22  1  0  0  0
M  END
>  <CHROM.0>
2.47480160,-165.14312964,-175.35240150

>  <CHROM.1>
60.32297837,52.21352850,-116.81110964,-56.95627264,175.08014242,-178.75793357
6.45285076,-36.56096047,22.69522744,0.17486280,-0.05003159,-2.51924022

>  <FORMUL>
      612    C16 H26 N2 O3 S1

>  <HET>
 612  A 999      22

>  <HETNAM>
     612 6-(cyclohexylsulfanyl)-1-(ethoxymethyl)-5-(1-methylethy
   2 612 l)pyrimidine-2,4(1H,3H)-dione

>  <HETSYN>
     612 TNK-6123

>  <Name>
612.pdb

>  <RI>
0

>  <Rbt.Current_Directory>
/home/malgorzata/Desktop/rDOCK_IFD/Wyniki/9a_hiv_rt/IFD

>  <Rbt.Executable>
rbdock ($Id: //depot/dev/client3/rdock/2013.1/src/exe/rbdock.cxx#4 $)

>  <Rbt.Library>
libRbt.so (2013.1, Build901 2013/11/27)

>  <Rbt.Parameter_File>
/home/malgorzata/Desktop/rDock_2013.1_src/data/scripts/hard_docking.prm

>  <Rbt.Receptor>
cavity.prm

>  <SCORE>
0.976568

>  <SCORE.INTER>
-0.305247

>  <SCORE.INTER.CONST>
1

>  <SCORE.INTER.POLAR>
0

>  <SCORE.INTER.REPUL>
0

>  <SCORE.INTER.ROT>
6

>  <SCORE.INTER.VDW>
-11.7052

>  <SCORE.INTER.norm>
-0.0138749

>  <SCORE.INTRA>
-3.09131

>  <SCORE.INTRA.DIHEDRAL>
-6.66071

>  <SCORE.INTRA.DIHEDRAL.0>
11.8882

>  <SCORE.INTRA.POLAR>
0

>  <SCORE.INTRA.POLAR.0>
0

>  <SCORE.INTRA.REPUL>
0

>  <SCORE.INTRA.REPUL.0>
0

>  <SCORE.INTRA.VDW>
0.239042

>  <SCORE.INTRA.VDW.0>
-3.04122

>  <SCORE.INTRA.norm>
-0.140514

>  <SCORE.RESTR>
5.0026

>  <SCORE.RESTR.CAVITY>
5.0026

>  <SCORE.RESTR.norm>
0.227391

>  <SCORE.SYSTEM>
-0.629472

>  <SCORE.SYSTEM.CONST>
0

>  <SCORE.SYSTEM.DIHEDRAL>
0.359307

>  <SCORE.SYSTEM.VDW>
-0.809126

>  <SCORE.SYSTEM.norm>
-0.0286124

>  <SCORE.heavy>
22

>  <SCORE.norm>
0.0443894

$$$$
612.pdb
  rDOCK(R)          3D
libRbt.so/2013.1/901 2013/11/27
 23 24  0  0  0  0  0  0  0  0999 V2000
    7.4298  -37.0230   23.0764 C   0  0  0  0  0  0
    8.5253  -37.1278   22.0257 C   0  0  0  0  0  0
    9.2682  -35.8246   21.8901 C   0  0  0  0  0  0
    8.3084  -34.6881   21.5519 C   0  0  0  0  0  0
    7.2236  -34.5782   22.6155 C   0  0  0  0  0  0
    6.4754  -35.8881   22.7317 C   0  0  0  0  0  0
    6.5149  -38.6028   22.9800 S   0  0  0  0  0  0
    4.9683  -38.3249   21.9853 C   0  0  0  0  0  0
    3.7386  -38.1507   22.6049 C   0  0  0  0  0  0
    3.5516  -37.8698   24.1077 C   0  0  0  0  0  0
    2.7486  -38.9139   24.8473 C   0  0  0  0  0  0
    3.1543  -36.4663   24.4141 C   0  0  0  0  0  0
    2.5384  -38.0223   21.7958 C   0  0  0  0  0  0
    1.4117  -37.9204   22.2635 O   0  0  0  0  0  0
    5.0685  -38.3547   20.5815 N   0  0  0  0  0  0
    3.9374  -38.2168   19.7523 C   0  0  0  0  0  0
    4.0098  -38.2196   18.5250 O   0  0  0  0  0  0
    2.7267  -38.0673   20.4119 N   0  0  0  0  0  0
    6.3731  -38.4826   19.8839 C   0  0  0  0  0  0
    6.8553  -37.2225   19.4307 O   0  0  0  0  0  0
    8.0877  -37.3549   18.7161 C   0  0  0  0  0  0
    8.5870  -36.0084   18.2537 C   0  0  0  0  0  0
    1.9220  -37.9847   19.8508 H   0  0  0  0  0  0
  1  2  1  0  0  0
  1  6  1  0  0  0
  1  7  1  0  0  0
  2  3  1  0  0  0
  3  4  1  0  0  0
  4  5  1  0  0  0
  5  6  1  0  0  0
  7  8  1  0  0  0
  8  9  2  0  0  0
  8 15  1  0  0  0
  9 10  1  0  0  0
  9 13  1  0  0  0
 10 11  1  0  0  0
 10 12  1  0  0  0
 13 14  2  0  0  0
 13 18  1  0  0  0
 15 16  1  0  0  0
 15 19  1  0  0  0
 16 17  2  0  0  0
 16 18  1  0  0  0
 18 23  1  0  0  0
 19 20  1  0  0  0
 20 21  1  0  0  0
 21 22  1  0  0  0
M  END
>  <CHROM.0>
-173.17551186,-165.86635706,-23.98844283

>  <CHROM.1>
-99.83973822,-100.52640821,-119.33004921,-99.16243317,-177.85147130,-179.57172483
5.57722287,-37.38987816,21.60853284,-0.33176079,0.37899411,1.40749164

>  <FORMUL>
      612    C16 H26 N2 O3 S1

>  <HET>
 612  A 999      22

>  <HETNAM>
     612 6-(cyclohexylsulfanyl)-1-(ethoxymethyl)-5-(1-methylethy
   2 612 l)pyrimidine-2,4(1H,3H)-dione

>  <HETSYN>
     612 TNK-6123

>  <Name>
612.pdb

>  <RI>
0

>  <Rbt.Current_Directory>
/home/malgorzata/Desktop/rDOCK_IFD/Wyniki/9a_hiv_rt/IFD

>  <Rbt.Executable>
rbdock ($Id: //depot/dev/client3/rdock/2013.1/src/exe/rbdock.cxx#4 $)

>  <Rbt.Library>
libRbt.so (2013.1, Build901 2013/11/27)

>  <Rbt.Parameter_File>
/home/malgorzata/Desktop/rDock_2013.1_src/data/scripts/hard_docking.prm

>  <Rbt.Receptor>
cavity.prm

>  <SCORE>
2.39771

>  <SCORE.INTER>
1.90578

>  <SCORE.INTER.CONST>
1

>  <SCORE.INTER.POLAR>
0

>  <SCORE.INTER.REPUL>
0.0585969

>  <SCORE.INTER.ROT>
6

>  <SCORE.INTER.VDW>
-9.7872

>  <SCORE.INTER.norm>
0.0866265

>  <SCORE.INTRA>
-3.1399

>  <SCORE.INTRA.DIHEDRAL>
-4.74861

>  <SCORE.INTRA.DIHEDRAL.0>
11.8882

>  <SCORE.INTRA.POLAR>
0

>  <SCORE.INTRA.POLAR.0>
0

>  <SCORE.INTRA.REPUL>
0

>  <SCORE.INTRA.REPUL.0>
0

>  <SCORE.INTRA.VDW>
-0.765598

>  <SCORE.INTRA.VDW.0>
-3.04122

>  <SCORE.INTRA.norm>
-0.142723

>  <SCORE.RESTR>
3.81296

>  <SCORE.RESTR.CAVITY>
3.81296

>  <SCORE.RESTR.norm>
0.173316

>  <SCORE.SYSTEM>
-0.181125

>  <SCORE.SYSTEM.CONST>
0

>  <SCORE.SYSTEM.DIHEDRAL>
1.14355

>  <SCORE.SYSTEM.REPUL>
0.00113266

>  <SCORE.SYSTEM.VDW>
-0.758561

>  <SCORE.SYSTEM.norm>
-0.00823296

>  <SCORE.heavy>
22

>  <SCORE.norm>
0.108987

$$$$
612.pdb
  rDOCK(R)          3D
libRbt.so/2013.1/901 2013/11/27
 23 24  0  0  0  0  0  0  0  0999 V2000
   -0.4048  -36.9558   26.3007 C   0  0  0  0  0  0
   -1.7668  -37.5976   26.0815 C   0  0  0  0  0  0
   -1.7491  -39.0493   26.4825 C   0  0  0  0  0  0
   -0.6697  -39.8083   25.7170 C   0  0  0  0  0  0
    0.6933  -39.1706   25.9533 C   0  0  0  0  0  0
    0.6668  -37.7174   25.5331 C   0  0  0  0  0  0
   -0.5432  -35.2751   25.5949 S   0  0  0  0  0  0
   -0.5242  -34.0487   26.9929 C   0  0  0  0  0  0
    0.5891  -33.9095   27.8099 C   0  0  0  0  0  0
    1.9800  -34.4912   27.4948 C   0  0  0  0  0  0
    2.5827  -35.3174   28.6065 C   0  0  0  0  0  0
    2.9215  -33.5079   26.8879 C   0  0  0  0  0  0
    0.5381  -33.0040   28.9453 C   0  0  0  0  0  0
    1.4550  -32.8644   29.7443 O   0  0  0  0  0  0
   -1.6937  -33.3046   27.2380 N   0  0  0  0  0  0
   -1.7876  -32.4003   28.3147 C   0  0  0  0  0  0
   -2.7936  -31.7274   28.5306 O   0  0  0  0  0  0
   -0.6613  -32.3083   29.1187 N   0  0  0  0  0  0
   -2.8831  -33.3854   26.3526 C   0  0  0  0  0  0
   -2.6015  -32.9006   25.0444 O   0  0  0  0  0  0
   -3.7411  -33.0064   24.1857 C   0  0  0  0  0  0
   -3.4082  -32.5342   22.7920 C   0  0  0  0  0  0
   -0.7118  -31.6934   29.8858 H   0  0  0  0  0  0
  1  2  1  0  0  0
  1  6  1  0  0  0
  1  7  1  0  0  0
  2  3  1  0  0  0
  3  4  1  0  0  0
  4  5  1  0  0  0
  5  6  1  0  0  0
  7  8  1  0  0  0
  8  9  2  0  0  0
  8 15  1  0  0  0
  9 10  1  0  0  0
  9 13  1  0  0  0
 10 11  1  0  0  0
 10 12  1  0  0  0
 13 14  2  0  0  0
 13 18  1  0  0  0
 15 16  1  0  0  0
 15 19  1  0  0  0
 16 17  2  0  0  0
 16 18  1  0  0  0
 18 23  1  0  0  0
 19 20  1  0  0  0
 20 21  1  0  0  0
 21 22  1  0  0  0
M  END
>  <CHROM.0>
-177.84195178,-167.04958090,-24.71293456

>  <CHROM.1>
109.94708654,63.79471502,-128.12917438,-64.19498167,178.75061871,-177.96212098
-0.63995620,-34.73958185,26.72849682,1.31220466,0.65255319,-2.75088902

>  <FORMUL>
      612    C16 H26 N2 O3 S1

>  <HET>
 612  A 999      22

>  <HETNAM>
     612 6-(cyclohexylsulfanyl)-1-(ethoxymethyl)-5-(1-methylethy
   2 612 l)pyrimidine-2,4(1H,3H)-dione

>  <HETSYN>
     612 TNK-6123

>  <Name>
612.pdb

>  <RI>
0

>  <Rbt.Current_Directory>
/home/malgorzata/Desktop/rDOCK_IFD/Wyniki/9a_hiv_rt/IFD

>  <Rbt.Executable>
rbdock ($Id: //depot/dev/client3/rdock/2013.1/src/exe/rbdock.cxx#4 $)

>  <Rbt.Library>
libRbt.so (2013.1, Build901 2013/11/27)

>  <Rbt.Parameter_File>
/home/malgorzata/Desktop/rDock_2013.1_src/data/scripts/hard_docking.prm

>  <Rbt.Receptor>
cavity.prm

>  <SCORE>
-15.2852

>  <SCORE.INTER>
-13.3827

>  <SCORE.INTER.CONST>
1

>  <SCORE.INTER.POLAR>
0

>  <SCORE.INTER.REPUL>
0

>  <SCORE.INTER.ROT>
6

>  <SCORE.INTER.VDW>
-24.7827

>  <SCORE.INTER.norm>
-0.608303

>  <SCORE.INTRA>
-1.71457

>  <SCORE.INTRA.DIHEDRAL>
-4.48086

>  <SCORE.INTRA.DIHEDRAL.0>
11.8882

>  <SCORE.INTRA.POLAR>
0

>  <SCORE.INTRA.POLAR.0>
0

>  <SCORE.INTRA.REPUL>
0

>  <SCORE.INTRA.REPUL.0>
0

>  <SCORE.INTRA.VDW>
0.525854

>  <SCORE.INTRA.VDW.0>
-3.04122

>  <SCORE.INTRA.norm>
-0.0779352

>  <SCORE.RESTR>
0

>  <SCORE.RESTR.CAVITY>
0

>  <SCORE.RESTR.norm>
0

>  <SCORE.SYSTEM>
-0.187925

>  <SCORE.SYSTEM.CONST>
0

>  <SCORE.SYSTEM.DIHEDRAL>
1.0848

>  <SCORE.SYSTEM.VDW>
-0.730326

>  <SCORE.SYSTEM.norm>
-0.00854203

>  <SCORE.heavy>
22

>  <SCORE.norm>
-0.69478

$$$$
612.pdb
  rDOCK(R)          3D
libRbt.so/2013.1/901 2013/11/27
 23 24  0  0  0  0  0  0  0  0999 V2000
    7.2469  -37.0122   18.7185 C   0  0  0  0  0  0
    8.2755  -35.8950   18.6241 C   0  0  0  0  0  0
    8.2203  -35.2243   17.2766 C   0  0  0  0  0  0
    8.4288  -36.2406   16.1581 C   0  0  0  0  0  0
    7.3865  -37.3475   16.2486 C   0  0  0  0  0  0
    7.4619  -38.0229   17.6004 C   0  0  0  0  0  0
    7.5725  -37.8352   20.3180 S   0  0  0  0  0  0
    6.5776  -36.9754   21.6331 C   0  0  0  0  0  0
    7.0429  -35.8189   22.2433 C   0  0  0  0  0  0
    8.2225  -34.9743   21.7262 C   0  0  0  0  0  0
    9.4540  -35.0125   22.6000 C   0  0  0  0  0  0
    7.8346  -33.6060   21.2801 C   0  0  0  0  0  0
    6.2806  -35.2220   23.3269 C   0  0  0  0  0  0
    6.6475  -34.2357   23.9524 O   0  0  0  0  0  0
    5.3635  -37.5628   22.0363 N   0  0  0  0  0  0
    4.5786  -37.0130   23.0694 C   0  0  0  0  0  0
    3.5059  -37.5012   23.4197 O   0  0  0  0  0  0
    5.0907  -35.8710   23.6668 N   0  0  0  0  0  0
    4.8070  -38.7669   21.3689 C   0  0  0  0  0  0
    5.4058  -39.9636   21.8537 O   0  0  0  0  0  0
    5.1251  -40.1695   23.2415 C   0  0  0  0  0  0
    5.8008  -41.4208   23.7454 C   0  0  0  0  0  0
    4.5650  -35.4797   24.4014 H   0  0  0  0  0  0
  1  2  1  0  0  0
  1  6  1  0  0  0
  1  7  1  0  0  0
  2  3  1  0  0  0
  3  4  1  0  0  0
  4  5  1  0  0  0
  5  6  1  0  0  0
  7  8  1  0  0  0
  8  9  2  0  0  0
  8 15  1  0  0  0
  9 10  1  0  0  0
  9 13  1  0  0  0
 10 11  1  0  0  0
 10 12  1  0  0  0
 13 14  2  0  0  0
 13 18  1  0  0  0
 15 16  1  0  0  0
 15 19  1  0  0  0
 16 17  2  0  0  0
 16 18  1  0  0  0
 18 23  1  0  0  0
 19 20  1  0  0  0
 20 21  1  0  0  0
 21 22  1  0  0  0
M  END
>  <CHROM.0>
-174.90368693,-163.17968900,-21.93990693

>  <CHROM.1>
88.91750717,-83.38091910,-111.19214503,81.79766416,63.68456765,-178.36636922
6.68551208,-36.96810829,21.08114946,0.47453777,-1.04644997,-2.27800198

>  <FORMUL>
      612    C16 H26 N2 O3 S1

>  <HET>
 612  A 999      22

>  <HETNAM>
     612 6-(cyclohexylsulfanyl)-1-(ethoxymethyl)-5-(1-methylethy
   2 612 l)pyrimidine-2,4(1H,3H)-dione

>  <HETSYN>
     612 TNK-6123

>  <Name>
612.pdb

>  <RI>
0

>  <Rbt.Current_Directory>
/home/malgorzata/Desktop/rDOCK_IFD/Wyniki/9a_hiv_rt/IFD

>  <Rbt.Executable>
rbdock ($Id: //depot/dev/client3/rdock/2013.1/src/exe/rbdock.cxx#4 $)

>  <Rbt.Library>
libRbt.so (2013.1, Build901 2013/11/27)

>  <Rbt.Parameter_File>
/home/malgorzata/Desktop/rDock_2013.1_src/data/scripts/hard_docking.prm

>  <Rbt.Receptor>
cavity.prm

>  <SCORE>
12.5485

>  <SCORE.INTER>
1.38855

>  <SCORE.INTER.CONST>
1

>  <SCORE.INTER.POLAR>
0

>  <SCORE.INTER.REPUL>
0

>  <SCORE.INTER.ROT>
6

>  <SCORE.INTER.VDW>
-10.0114

>  <SCORE.INTER.norm>
0.0631161

>  <SCORE.INTRA>
-2.16198

>  <SCORE.INTRA.DIHEDRAL>
-5.6373

>  <SCORE.INTRA.DIHEDRAL.0>
11.8882

>  <SCORE.INTRA.POLAR>
0

>  <SCORE.INTRA.POLAR.0>
0

>  <SCORE.INTRA.REPUL>
0

>  <SCORE.INTRA.REPUL.0>
0

>  <SCORE.INTRA.VDW>
0.656671

>  <SCORE.INTRA.VDW.0>
-3.04122

>  <SCORE.INTRA.norm>
-0.0982718

>  <SCORE.RESTR>
13.4613

>  <SCORE.RESTR.CAVITY>
13.4613

>  <SCORE.RESTR.norm>
0.611875

>  <SCORE.SYSTEM>
-0.139296

>  <SCORE.SYSTEM.CONST>
0

>  <SCORE.SYSTEM.DIHEDRAL>
1.10769

>  <SCORE.SYSTEM.REPUL>
0.0172578

>  <SCORE.SYSTEM.VDW>
-0.779432

>  <SCORE.SYSTEM.norm>
-0.00633162

>  <SCORE.heavy>
22

>  <SCORE.norm>
0.570388

$$$$
