TOL.pdb
  rDOCK(R)          3D
libRbt.so/2013.1/901 2013/11/27
 25 26  0  0  0  0  0  0  0  0999 V2000
   16.2635   29.7812   65.3839 C   0  0  0  0  0  0
   15.9449   31.0859   65.5762 F   0  0  0  0  0  0
   15.1994   29.0483   65.8065 F   0  0  0  0  0  0
   16.3923   29.5716   64.0466 F   0  0  0  0  0  0
   17.5628   29.3983   66.1251 C   0  0  0  0  0  0
   18.8194   29.2372   65.4855 C   0  0  0  0  0  0
   18.9170   29.4185   64.1809 O   0  0  0  0  0  0
   19.0160   28.2016   63.4595 C   0  0  0  0  0  0
   19.9478   28.8812   66.2563 C   0  0  0  0  0  0
   19.8395   28.6874   67.6380 C   0  0  0  0  0  0
   18.5933   28.8440   68.2763 C   0  0  0  0  0  0
   18.4968   28.6438   69.6733 C   0  0  0  0  0  0
   17.2544   28.8013   70.3091 C   0  0  0  0  0  0
   16.1215   29.1509   69.5707 C   0  0  0  0  0  0
   16.2222   29.3487   68.1879 C   0  0  0  0  0  0
   17.4553   29.1978   67.5269 C   0  0  0  0  0  0
   19.6686   28.2652   70.5482 C   0  0  0  0  0  0
   20.2575   26.6563   70.5188 S   0  0  0  0  0  0
   20.2392   29.1905   71.3213 N   0  0  0  0  0  0
   19.7878   30.5757   71.2477 C   0  0  0  0  0  0
   21.3271   28.8591   72.2359 C   0  0  0  0  0  0
   22.6569   28.6646   71.4875 C   0  0  0  0  0  0
   22.9548   29.3231   70.5259 O   0  0  0  0  0  0
   23.4615   27.7184   71.9841 O   0  0  0  0  0  0
   24.1108   27.3213   71.4376 H   0  0  0  0  0  0
  1  2  1  0  0  0
  1  3  1  0  0  0
  1  4  1  0  0  0
  1  5  1  0  0  0
  5  6  2  0  0  0
  5 16  1  0  0  0
  6  7  1  0  0  0
  6  9  1  0  0  0
  7  8  1  0  0  0
  9 10  2  0  0  0
 10 11  1  0  0  0
 11 12  2  0  0  0
 11 16  1  0  0  0
 12 13  1  0  0  0
 12 17  1  0  0  0
 13 14  2  0  0  0
 14 15  1  0  0  0
 15 16  2  0  0  0
 17 18  2  0  0  0
 17 19  1  0  0  0
 19 20  1  0  0  0
 19 21  1  0  0  0
 21 22  1  0  0  0
 22 23  2  0  0  0
 22 24  1  0  0  0
 24 25  1  0  0  0
M  END
>  <CHROM.0>
78.05147058,39.90107394,42.30011684,115.79022641,-126.11969927,152.55295593
161.01186694,89.63876600,-61.18859492,-61.54190337,42.21433615,-61.41326028
-60.50081437,132.42416942

>  <CHROM.1>
-103.17526649,-104.13830715,-75.58077162,75.88382330,35.85683512,157.35057145
18.88294951,28.93564151,68.23107520,2.22610608,0.20838889,-1.54324981

>  <FORMUL>
      TOL    C16 H14 F3 N1 O3 S1

>  <HET>
 TOL  A 320      24

>  <HETNAM>
     TOL TOLRESTAT

>  <Name>
TOL.pdb

>  <RI>
0

>  <Rbt.Current_Directory>
/home/malgorzata/Desktop/rDOCK_IFD/Wyniki/1_aldose_rductase

>  <Rbt.Executable>
rbdock ($Id: //depot/dev/client3/rdock/2013.1/src/exe/rbdock.cxx#4 $)

>  <Rbt.Library>
libRbt.so (2013.1, Build901 2013/11/27)

>  <Rbt.Parameter_File>
/home/malgorzata/Desktop/rDock_2013.1_src/data/scripts/soft_docking.prm

>  <Rbt.Receptor>
cavity.prm

>  <SCORE>
-39.5947

>  <SCORE.INTER>
-32.083

>  <SCORE.INTER.CONST>
1

>  <SCORE.INTER.POLAR>
-1.19282

>  <SCORE.INTER.REPUL>
0.0275949

>  <SCORE.INTER.ROT>
5

>  <SCORE.INTER.VDW>
-38.5654

>  <SCORE.INTER.norm>
-1.33679

>  <SCORE.INTRA>
-5.2945

>  <SCORE.INTRA.DIHEDRAL>
7.54908

>  <SCORE.INTRA.DIHEDRAL.0>
16.9783

>  <SCORE.INTRA.POLAR>
0

>  <SCORE.INTRA.POLAR.0>
0

>  <SCORE.INTRA.REPUL>
0

>  <SCORE.INTRA.REPUL.0>
0

>  <SCORE.INTRA.VDW>
-6.80432

>  <SCORE.INTRA.VDW.0>
4.87734

>  <SCORE.INTRA.norm>
-0.220604

>  <SCORE.RESTR>
0

>  <SCORE.RESTR.CAVITY>
0

>  <SCORE.RESTR.norm>
0

>  <SCORE.SYSTEM>
-2.21719

>  <SCORE.SYSTEM.CONST>
0

>  <SCORE.SYSTEM.DIHEDRAL>
23.3133

>  <SCORE.SYSTEM.POLAR>
-3.96669

>  <SCORE.SYSTEM.REPUL>
1.23695

>  <SCORE.SYSTEM.VDW>
-6.57185

>  <SCORE.SYSTEM.norm>
-0.0923828

>  <SCORE.heavy>
24

>  <SCORE.norm>
-1.64978

$$$$
TOL.pdb
  rDOCK(R)          3D
libRbt.so/2013.1/901 2013/11/27
 25 26  0  0  0  0  0  0  0  0999 V2000
   15.3453   29.6587   65.5588 C   0  0  0  0  0  0
   15.0197   29.6086   64.2427 F   0  0  0  0  0  0
   15.4215   30.9731   65.8972 F   0  0  0  0  0  0
   14.3185   29.1184   66.2678 F   0  0  0  0  0  0
   16.6636   28.9080   65.8470 C   0  0  0  0  0  0
   17.3340   28.0950   64.8965 C   0  0  0  0  0  0
   16.8271   27.9515   63.6854 O   0  0  0  0  0  0
   17.8010   28.0665   62.6611 C   0  0  0  0  0  0
   18.5343   27.4478   65.2635 C   0  0  0  0  0  0
   19.0667   27.6003   66.5487 C   0  0  0  0  0  0
   18.4027   28.4046   67.4958 C   0  0  0  0  0  0
   18.9505   28.5495   68.7919 C   0  0  0  0  0  0
   18.2886   29.3524   69.7353 C   0  0  0  0  0  0
   17.0987   30.0024   69.4000 C   0  0  0  0  0  0
   16.5607   29.8565   68.1152 C   0  0  0  0  0  0
   17.2044   29.0583   67.1515 C   0  0  0  0  0  0
   20.2308   27.8845   69.2395 C   0  0  0  0  0  0
   20.2139   26.2256   69.6684 S   0  0  0  0  0  0
   21.3607   28.5923   69.2814 N   0  0  0  0  0  0
   21.3696   29.9726   68.8094 C   0  0  0  0  0  0
   22.6077   28.0154   69.7732 C   0  0  0  0  0  0
   22.8005   28.2806   71.2762 C   0  0  0  0  0  0
   22.3329   27.5622   72.1201 O   0  0  0  0  0  0
   23.5298   29.3603   71.5792 O   0  0  0  0  0  0
   23.9853   29.4036   72.3968 H   0  0  0  0  0  0
  1  2  1  0  0  0
  1  3  1  0  0  0
  1  4  1  0  0  0
  1  5  1  0  0  0
  5  6  2  0  0  0
  5 16  1  0  0  0
  6  7  1  0  0  0
  6  9  1  0  0  0
  7  8  1  0  0  0
  9 10  2  0  0  0
 10 11  1  0  0  0
 11 12  2  0  0  0
 11 16  1  0  0  0
 12 13  1  0  0  0
 12 17  1  0  0  0
 13 14  2  0  0  0
 14 15  1  0  0  0
 15 16  2  0  0  0
 17 18  2  0  0  0
 17 19  1  0  0  0
 19 20  1  0  0  0
 19 21  1  0  0  0
 21 22  1  0  0  0
 22 23  2  0  0  0
 22 24  1  0  0  0
 24 25  1  0  0  0
M  END
>  <CHROM.0>
161.88385192,-77.58705388,-132.69116462,96.19794103,171.70447013,-57.29064346
119.89151755,-124.02275633,-61.18859492,-61.54190337,-115.08421991,-61.41326028
-60.50081437,-24.46494927

>  <CHROM.1>
-9.20097054,135.30628405,-78.33358117,-92.54387670,85.89918129,-154.66358773
18.64144947,28.61437820,67.67931305,2.53414298,0.48953941,-1.99144329

>  <FORMUL>
      TOL    C16 H14 F3 N1 O3 S1

>  <HET>
 TOL  A 320      24

>  <HETNAM>
     TOL TOLRESTAT

>  <Name>
TOL.pdb

>  <RI>
0

>  <Rbt.Current_Directory>
/home/malgorzata/Desktop/rDOCK_IFD/Wyniki/1_aldose_rductase

>  <Rbt.Executable>
rbdock ($Id: //depot/dev/client3/rdock/2013.1/src/exe/rbdock.cxx#4 $)

>  <Rbt.Library>
libRbt.so (2013.1, Build901 2013/11/27)

>  <Rbt.Parameter_File>
/home/malgorzata/Desktop/rDock_2013.1_src/data/scripts/soft_docking.prm

>  <Rbt.Receptor>
cavity.prm

>  <SCORE>
-33.7453

>  <SCORE.INTER>
-23.6761

>  <SCORE.INTER.CONST>
1

>  <SCORE.INTER.POLAR>
-0.834002

>  <SCORE.INTER.REPUL>
0

>  <SCORE.INTER.ROT>
5

>  <SCORE.INTER.VDW>
-31.2405

>  <SCORE.INTER.norm>
-0.986506

>  <SCORE.INTRA>
-3.71629

>  <SCORE.INTRA.DIHEDRAL>
6.31166

>  <SCORE.INTRA.DIHEDRAL.0>
16.9783

>  <SCORE.INTRA.POLAR>
0

>  <SCORE.INTRA.POLAR.0>
0

>  <SCORE.INTRA.REPUL>
0

>  <SCORE.INTRA.REPUL.0>
0

>  <SCORE.INTRA.VDW>
-4.97862

>  <SCORE.INTRA.VDW.0>
4.87734

>  <SCORE.INTRA.norm>
-0.154845

>  <SCORE.RESTR>
1.29877

>  <SCORE.RESTR.CAVITY>
0.259754

>  <SCORE.RESTR.norm>
0.0541153

>  <SCORE.SYSTEM>
-7.65163

>  <SCORE.SYSTEM.CONST>
0

>  <SCORE.SYSTEM.DIHEDRAL>
15.612

>  <SCORE.SYSTEM.POLAR>
-4.04342

>  <SCORE.SYSTEM.REPUL>
1.20646

>  <SCORE.SYSTEM.VDW>
-7.74233

>  <SCORE.SYSTEM.norm>
-0.318818

>  <SCORE.heavy>
24

>  <SCORE.norm>
-1.40605

$$$$
TOL.pdb
  rDOCK(R)          3D
libRbt.so/2013.1/901 2013/11/27
 25 26  0  0  0  0  0  0  0  0999 V2000
   23.6660   28.4088   73.3961 C   0  0  0  0  0  0
   24.7173   27.5804   73.6181 F   0  0  0  0  0  0
   22.9038   28.3900   74.5216 F   0  0  0  0  0  0
   24.1476   29.6726   73.2560 F   0  0  0  0  0  0
   22.8645   27.9872   72.1454 C   0  0  0  0  0  0
   23.2036   26.8792   71.3260 C   0  0  0  0  0  0
   24.2606   26.1452   71.6234 O   0  0  0  0  0  0
   24.0147   25.2202   72.6697 C   0  0  0  0  0  0
   22.4048   26.5807   70.2004 C   0  0  0  0  0  0
   21.2872   27.3626   69.8872 C   0  0  0  0  0  0
   20.9488   28.4648   70.6969 C   0  0  0  0  0  0
   19.8175   29.2481   70.3687 C   0  0  0  0  0  0
   19.4801   30.3460   71.1769 C   0  0  0  0  0  0
   20.2538   30.6654   72.2951 C   0  0  0  0  0  0
   21.3725   29.8864   72.6163 C   0  0  0  0  0  0
   21.7318   28.7808   71.8233 C   0  0  0  0  0  0
   18.9258   28.9752   69.1803 C   0  0  0  0  0  0
   19.4778   29.3634   67.6053 S   0  0  0  0  0  0
   17.7266   28.4226   69.3701 N   0  0  0  0  0  0
   17.3248   28.0037   70.7084 C   0  0  0  0  0  0
   16.8005   28.2042   68.2635 C   0  0  0  0  0  0
   15.6944   29.2728   68.2313 C   0  0  0  0  0  0
   15.7620   30.2458   67.5273 O   0  0  0  0  0  0
   14.6498   29.0413   69.0341 O   0  0  0  0  0  0
   13.9218   29.6311   69.0375 H   0  0  0  0  0  0
  1  2  1  0  0  0
  1  3  1  0  0  0
  1  4  1  0  0  0
  1  5  1  0  0  0
  5  6  2  0  0  0
  5 16  1  0  0  0
  6  7  1  0  0  0
  6  9  1  0  0  0
  7  8  1  0  0  0
  9 10  2  0  0  0
 10 11  1  0  0  0
 11 12  2  0  0  0
 11 16  1  0  0  0
 12 13  1  0  0  0
 12 17  1  0  0  0
 13 14  2  0  0  0
 14 15  1  0  0  0
 15 16  2  0  0  0
 17 18  2  0  0  0
 17 19  1  0  0  0
 19 20  1  0  0  0
 19 21  1  0  0  0
 21 22  1  0  0  0
 22 23  2  0  0  0
 22 24  1  0  0  0
 24 25  1  0  0  0
M  END
>  <CHROM.0>
93.94214850,39.90178443,-89.24963834,168.58387550,-53.99836945,52.12264007
132.30403895,-140.99071567,-61.18859492,-61.54190337,-108.87670593,-61.41326028
-60.50081437,73.19801987

>  <CHROM.1>
-0.76273587,79.10674352,-74.64662399,-101.84204156,96.61115768,-177.30493111
20.56992760,28.49755666,70.82221157,0.27761565,-0.52355870,0.85412184

>  <FORMUL>
      TOL    C16 H14 F3 N1 O3 S1

>  <HET>
 TOL  A 320      24

>  <HETNAM>
     TOL TOLRESTAT

>  <Name>
TOL.pdb

>  <RI>
0

>  <Rbt.Current_Directory>
/home/malgorzata/Desktop/rDOCK_IFD/Wyniki/1_aldose_rductase

>  <Rbt.Executable>
rbdock ($Id: //depot/dev/client3/rdock/2013.1/src/exe/rbdock.cxx#4 $)

>  <Rbt.Library>
libRbt.so (2013.1, Build901 2013/11/27)

>  <Rbt.Parameter_File>
/home/malgorzata/Desktop/rDock_2013.1_src/data/scripts/soft_docking.prm

>  <Rbt.Receptor>
cavity.prm

>  <SCORE>
-55.2374

>  <SCORE.INTER>
-39.5238

>  <SCORE.INTER.CONST>
1

>  <SCORE.INTER.POLAR>
-3.59282

>  <SCORE.INTER.REPUL>
0.248587

>  <SCORE.INTER.ROT>
5

>  <SCORE.INTER.VDW>
-38.9511

>  <SCORE.INTER.norm>
-1.64682

>  <SCORE.INTRA>
-4.67882

>  <SCORE.INTRA.DIHEDRAL>
4.04875

>  <SCORE.INTRA.DIHEDRAL.0>
16.9783

>  <SCORE.INTRA.POLAR>
0

>  <SCORE.INTRA.POLAR.0>
0

>  <SCORE.INTRA.REPUL>
0

>  <SCORE.INTRA.REPUL.0>
0

>  <SCORE.INTRA.VDW>
-5.48857

>  <SCORE.INTRA.VDW.0>
4.87734

>  <SCORE.INTRA.norm>
-0.194951

>  <SCORE.RESTR>
0.939437

>  <SCORE.RESTR.CAVITY>
0.187887

>  <SCORE.RESTR.norm>
0.0391432

>  <SCORE.SYSTEM>
-11.9742

>  <SCORE.SYSTEM.CONST>
0

>  <SCORE.SYSTEM.DIHEDRAL>
15.4353

>  <SCORE.SYSTEM.POLAR>
-4.97134

>  <SCORE.SYSTEM.REPUL>
1.16943

>  <SCORE.SYSTEM.VDW>
-8.63647

>  <SCORE.SYSTEM.norm>
-0.498925

>  <SCORE.heavy>
24

>  <SCORE.norm>
-2.30156

$$$$
TOL.pdb
  rDOCK(R)          3D
libRbt.so/2013.1/901 2013/11/27
 25 26  0  0  0  0  0  0  0  0999 V2000
   15.5348   29.5251   68.1150 C   0  0  0  0  0  0
   15.4702   28.7732   66.9875 F   0  0  0  0  0  0
   15.9159   30.7737   67.7359 F   0  0  0  0  0  0
   14.2794   29.6246   68.6276 F   0  0  0  0  0  0
   16.5018   28.9129   69.1516 C   0  0  0  0  0  0
   16.0805   28.1469   70.2694 C   0  0  0  0  0  0
   14.7928   27.9262   70.4629 O   0  0  0  0  0  0
   14.4057   28.0655   71.8200 C   0  0  0  0  0  0
   17.0479   27.6344   71.1615 C   0  0  0  0  0  0
   18.4112   27.8728   70.9543 C   0  0  0  0  0  0
   18.8332   28.6349   69.8471 C   0  0  0  0  0  0
   20.2141   28.8699   69.6497 C   0  0  0  0  0  0
   20.6342   29.6288   68.5450 C   0  0  0  0  0  0
   19.6988   30.1496   67.6480 C   0  0  0  0  0  0
   18.3328   29.9135   67.8473 C   0  0  0  0  0  0
   17.8857   29.1560   68.9457 C   0  0  0  0  0  0
   21.2928   28.3455   70.5679 C   0  0  0  0  0  0
   22.4803   27.2763   69.9491 S   0  0  0  0  0  0
   21.3164   28.7321   71.8444 N   0  0  0  0  0  0
   20.3591   29.7252   72.3190 C   0  0  0  0  0  0
   22.2945   28.1997   72.7877 C   0  0  0  0  0  0
   23.7291   28.5990   72.4019 C   0  0  0  0  0  0
   23.9689   29.5812   71.7503 O   0  0  0  0  0  0
   24.6909   27.7830   72.8474 O   0  0  0  0  0  0
   25.5788   28.0806   72.8822 H   0  0  0  0  0  0
  1  2  1  0  0  0
  1  3  1  0  0  0
  1  4  1  0  0  0
  1  5  1  0  0  0
  5  6  2  0  0  0
  5 16  1  0  0  0
  6  7  1  0  0  0
  6  9  1  0  0  0
  7  8  1  0  0  0
  9 10  2  0  0  0
 10 11  1  0  0  0
 11 12  2  0  0  0
 11 16  1  0  0  0
 12 13  1  0  0  0
 12 17  1  0  0  0
 13 14  2  0  0  0
 14 15  1  0  0  0
 15 16  2  0  0  0
 17 18  2  0  0  0
 17 19  1  0  0  0
 19 20  1  0  0  0
 19 21  1  0  0  0
 21 22  1  0  0  0
 22 23  2  0  0  0
 22 24  1  0  0  0
 24 25  1  0  0  0
M  END
>  <CHROM.0>
-9.78535921,-56.19261272,-82.73746775,176.07362839,-54.97609549,84.37811083
138.55346411,-175.86506191,-61.18859492,-61.54190337,-173.94522511,-61.41326028
-60.50081437,-136.99358155

>  <CHROM.1>
-100.17454019,-137.38501201,118.91820084,64.45225642,25.26709087,-161.60091385
19.00443594,28.77736525,70.05713727,-2.78038372,0.04367957,1.94488900

>  <FORMUL>
      TOL    C16 H14 F3 N1 O3 S1

>  <HET>
 TOL  A 320      24

>  <HETNAM>
     TOL TOLRESTAT

>  <Name>
TOL.pdb

>  <RI>
0

>  <Rbt.Current_Directory>
/home/malgorzata/Desktop/rDOCK_IFD/Wyniki/1_aldose_rductase

>  <Rbt.Executable>
rbdock ($Id: //depot/dev/client3/rdock/2013.1/src/exe/rbdock.cxx#4 $)

>  <Rbt.Library>
libRbt.so (2013.1, Build901 2013/11/27)

>  <Rbt.Parameter_File>
/home/malgorzata/Desktop/rDock_2013.1_src/data/scripts/soft_docking.prm

>  <Rbt.Receptor>
cavity.prm

>  <SCORE>
-40.7097

>  <SCORE.INTER>
-28.1146

>  <SCORE.INTER.CONST>
1

>  <SCORE.INTER.POLAR>
-2.30177

>  <SCORE.INTER.REPUL>
0.416756

>  <SCORE.INTER.ROT>
5

>  <SCORE.INTER.VDW>
-32.7723

>  <SCORE.INTER.norm>
-1.17144

>  <SCORE.INTRA>
-2.37781

>  <SCORE.INTRA.DIHEDRAL>
1.8078

>  <SCORE.INTRA.DIHEDRAL.0>
16.9783

>  <SCORE.INTRA.POLAR>
0

>  <SCORE.INTRA.POLAR.0>
0

>  <SCORE.INTRA.REPUL>
0

>  <SCORE.INTRA.REPUL.0>
0

>  <SCORE.INTRA.VDW>
-2.73937

>  <SCORE.INTRA.VDW.0>
4.87734

>  <SCORE.INTRA.norm>
-0.0990756

>  <SCORE.RESTR>
1.82529

>  <SCORE.RESTR.CAVITY>
0.365058

>  <SCORE.RESTR.norm>
0.0760538

>  <SCORE.SYSTEM>
-12.0427

>  <SCORE.SYSTEM.CONST>
0

>  <SCORE.SYSTEM.DIHEDRAL>
4.70685

>  <SCORE.SYSTEM.POLAR>
-3.66572

>  <SCORE.SYSTEM.REPUL>
1.16943

>  <SCORE.SYSTEM.VDW>
-7.77979

>  <SCORE.SYSTEM.norm>
-0.501777

>  <SCORE.heavy>
24

>  <SCORE.norm>
-1.69624

$$$$
TOL.pdb
  rDOCK(R)          3D
libRbt.so/2013.1/901 2013/11/27
 25 26  0  0  0  0  0  0  0  0999 V2000
   23.1598   28.5779   73.9558 C   0  0  0  0  0  0
   23.6424   27.5972   74.7597 F   0  0  0  0  0  0
   22.6158   29.5225   74.7681 F   0  0  0  0  0  0
   24.2120   29.1537   73.3155 F   0  0  0  0  0  0
   22.1360   28.0272   72.9395 C   0  0  0  0  0  0
   22.0495   26.6606   72.5665 C   0  0  0  0  0  0
   22.8786   25.7830   73.1020 O   0  0  0  0  0  0
   24.1850   25.8513   72.5548 C   0  0  0  0  0  0
   21.0775   26.2609   71.6233 C   0  0  0  0  0  0
   20.2027   27.1945   71.0563 C   0  0  0  0  0  0
   20.2871   28.5524   71.4222 C   0  0  0  0  0  0
   19.3980   29.4864   70.8408 C   0  0  0  0  0  0
   19.4819   30.8397   71.2069 C   0  0  0  0  0  0
   20.4352   31.2632   72.1358 C   0  0  0  0  0  0
   21.3128   30.3346   72.7093 C   0  0  0  0  0  0
   21.2491   28.9729   72.3601 C   0  0  0  0  0  0
   18.3379   29.1168   69.8301 C   0  0  0  0  0  0
   16.6875   29.1481   70.2898 S   0  0  0  0  0  0
   18.6982   28.7852   68.5893 N   0  0  0  0  0  0
   20.0997   28.8700   68.1940 C   0  0  0  0  0  0
   17.7187   28.3527   67.5975 C   0  0  0  0  0  0
   17.3892   29.4761   66.5996 C   0  0  0  0  0  0
   17.9050   30.5610   66.6609 O   0  0  0  0  0  0
   16.4955   29.1607   65.6556 O   0  0  0  0  0  0
   16.3703   29.7283   64.9206 H   0  0  0  0  0  0
  1  2  1  0  0  0
  1  3  1  0  0  0
  1  4  1  0  0  0
  1  5  1  0  0  0
  5  6  2  0  0  0
  5 16  1  0  0  0
  6  7  1  0  0  0
  6  9  1  0  0  0
  7  8  1  0  0  0
  9 10  2  0  0  0
 10 11  1  0  0  0
 11 12  2  0  0  0
 11 16  1  0  0  0
 12 13  1  0  0  0
 12 17  1  0  0  0
 13 14  2  0  0  0
 14 15  1  0  0  0
 15 16  2  0  0  0
 17 18  2  0  0  0
 17 19  1  0  0  0
 19 20  1  0  0  0
 19 21  1  0  0  0
 21 22  1  0  0  0
 22 23  2  0  0  0
 22 24  1  0  0  0
 24 25  1  0  0  0
M  END
>  <CHROM.0>
69.81361823,-135.04507443,-79.39945092,-170.65329162,71.59081716,-17.61889652
133.59980589,118.76463746,-61.18859492,-61.54190337,-70.44847786,-61.41326028
-60.50081437,-178.85507170

>  <CHROM.1>
-20.48356480,-75.95298481,108.87161762,102.46021636,0.42039430,-168.04424608
20.39318997,28.66533293,71.04276328,0.27389821,-0.78841880,0.62257021

>  <FORMUL>
      TOL    C16 H14 F3 N1 O3 S1

>  <HET>
 TOL  A 320      24

>  <HETNAM>
     TOL TOLRESTAT

>  <Name>
TOL.pdb

>  <RI>
0

>  <Rbt.Current_Directory>
/home/malgorzata/Desktop/rDOCK_IFD/Wyniki/1_aldose_rductase

>  <Rbt.Executable>
rbdock ($Id: //depot/dev/client3/rdock/2013.1/src/exe/rbdock.cxx#4 $)

>  <Rbt.Library>
libRbt.so (2013.1, Build901 2013/11/27)

>  <Rbt.Parameter_File>
/home/malgorzata/Desktop/rDock_2013.1_src/data/scripts/soft_docking.prm

>  <Rbt.Receptor>
cavity.prm

>  <SCORE>
-32.0556

>  <SCORE.INTER>
-25.5001

>  <SCORE.INTER.CONST>
1

>  <SCORE.INTER.POLAR>
-0.272207

>  <SCORE.INTER.REPUL>
0.594575

>  <SCORE.INTER.ROT>
5

>  <SCORE.INTER.VDW>
-37.9475

>  <SCORE.INTER.norm>
-1.06251

>  <SCORE.INTRA>
-5.02086

>  <SCORE.INTRA.DIHEDRAL>
4.51621

>  <SCORE.INTRA.DIHEDRAL.0>
16.9783

>  <SCORE.INTRA.POLAR>
0

>  <SCORE.INTRA.POLAR.0>
0

>  <SCORE.INTRA.REPUL>
0

>  <SCORE.INTRA.REPUL.0>
0

>  <SCORE.INTRA.VDW>
-5.9241

>  <SCORE.INTRA.VDW.0>
4.87734

>  <SCORE.INTRA.norm>
-0.209202

>  <SCORE.RESTR>
0.455365

>  <SCORE.RESTR.CAVITY>
0.091073

>  <SCORE.RESTR.norm>
0.0189735

>  <SCORE.SYSTEM>
-1.98993

>  <SCORE.SYSTEM.CONST>
0

>  <SCORE.SYSTEM.DIHEDRAL>
19.3029

>  <SCORE.SYSTEM.POLAR>
-3.1624

>  <SCORE.SYSTEM.REPUL>
1.26521

>  <SCORE.SYSTEM.VDW>
-7.2153

>  <SCORE.SYSTEM.norm>
-0.0829138

>  <SCORE.heavy>
24

>  <SCORE.norm>
-1.33565

$$$$
TOL.pdb
  rDOCK(R)          3D
libRbt.so/2013.1/901 2013/11/27
 25 26  0  0  0  0  0  0  0  0999 V2000
   15.7953   29.3910   65.4082 C   0  0  0  0  0  0
   15.7576   28.9874   64.1135 F   0  0  0  0  0  0
   15.8269   30.7501   65.3975 F   0  0  0  0  0  0
   14.6288   29.0192   65.9997 F   0  0  0  0  0  0
   17.0042   28.7885   66.1564 C   0  0  0  0  0  0
   18.0483   28.0681   65.5200 C   0  0  0  0  0  0
   18.0138   27.8850   64.2124 O   0  0  0  0  0  0
   17.6199   26.5724   63.8481 C   0  0  0  0  0  0
   19.1087   27.5541   66.2982 C   0  0  0  0  0  0
   19.1401   27.7480   67.6838 C   0  0  0  0  0  0
   18.1042   28.4605   68.3195 C   0  0  0  0  0  0
   18.1469   28.6483   69.7208 C   0  0  0  0  0  0
   17.1145   29.3597   70.3538 C   0  0  0  0  0  0
   16.0524   29.8772   69.6088 C   0  0  0  0  0  0
   16.0149   29.6893   68.2215 C   0  0  0  0  0  0
   17.0371   28.9808   67.5630 C   0  0  0  0  0  0
   19.2557   28.1245   70.6029 C   0  0  0  0  0  0
   19.5725   26.4411   70.6487 S   0  0  0  0  0  0
   19.9834   28.9793   71.3234 N   0  0  0  0  0  0
   19.7638   30.4147   71.1847 C   0  0  0  0  0  0
   21.0180   28.5177   72.2435 C   0  0  0  0  0  0
   22.4281   28.8171   71.7066 C   0  0  0  0  0  0
   23.3496   29.0795   72.4338 O   0  0  0  0  0  0
   22.5599   28.7582   70.3768 O   0  0  0  0  0  0
   23.4132   28.7689   69.9897 H   0  0  0  0  0  0
  1  2  1  0  0  0
  1  3  1  0  0  0
  1  4  1  0  0  0
  1  5  1  0  0  0
  5  6  2  0  0  0
  5 16  1  0  0  0
  6  7  1  0  0  0
  6  9  1  0  0  0
  7  8  1  0  0  0
  9 10  2  0  0  0
 10 11  1  0  0  0
 11 12  2  0  0  0
 11 16  1  0  0  0
 12 13  1  0  0  0
 12 17  1  0  0  0
 13 14  2  0  0  0
 14 15  1  0  0  0
 15 16  2  0  0  0
 17 18  2  0  0  0
 17 19  1  0  0  0
 19 20  1  0  0  0
 19 21  1  0  0  0
 21 22  1  0  0  0
 22 23  2  0  0  0
 22 24  1  0  0  0
 24 25  1  0  0  0
M  END
>  <CHROM.0>
-42.63249900,7.92205063,-101.38269144,125.27816103,-68.81373931,78.11833080
144.10557592,-155.18724594,-61.18859492,-61.54190337,-155.23181992,-61.41326028
-60.50081437,-12.13397532

>  <CHROM.1>
8.70880166,-103.56571595,-59.17247622,107.88830082,146.90551525,-168.52724794
18.40868121,28.62403714,68.29585912,2.33140059,0.45711573,-1.92441912

>  <FORMUL>
      TOL    C16 H14 F3 N1 O3 S1

>  <HET>
 TOL  A 320      24

>  <HETNAM>
     TOL TOLRESTAT

>  <Name>
TOL.pdb

>  <RI>
0

>  <Rbt.Current_Directory>
/home/malgorzata/Desktop/rDOCK_IFD/Wyniki/1_aldose_rductase

>  <Rbt.Executable>
rbdock ($Id: //depot/dev/client3/rdock/2013.1/src/exe/rbdock.cxx#4 $)

>  <Rbt.Library>
libRbt.so (2013.1, Build901 2013/11/27)

>  <Rbt.Parameter_File>
/home/malgorzata/Desktop/rDock_2013.1_src/data/scripts/soft_docking.prm

>  <Rbt.Receptor>
cavity.prm

>  <SCORE>
-47.5647

>  <SCORE.INTER>
-31.3289

>  <SCORE.INTER.CONST>
1

>  <SCORE.INTER.POLAR>
-1.443

>  <SCORE.INTER.REPUL>
0

>  <SCORE.INTER.ROT>
5

>  <SCORE.INTER.VDW>
-36.8227

>  <SCORE.INTER.norm>
-1.30537

>  <SCORE.INTRA>
-5.17507

>  <SCORE.INTRA.DIHEDRAL>
2.42246

>  <SCORE.INTRA.DIHEDRAL.0>
16.9783

>  <SCORE.INTRA.POLAR>
0

>  <SCORE.INTRA.POLAR.0>
0

>  <SCORE.INTRA.REPUL>
0

>  <SCORE.INTRA.REPUL.0>
0

>  <SCORE.INTRA.VDW>
-5.65956

>  <SCORE.INTRA.VDW.0>
4.87734

>  <SCORE.INTRA.norm>
-0.215628

>  <SCORE.RESTR>
0

>  <SCORE.RESTR.CAVITY>
0

>  <SCORE.RESTR.norm>
0

>  <SCORE.SYSTEM>
-11.0607

>  <SCORE.SYSTEM.CONST>
0

>  <SCORE.SYSTEM.DIHEDRAL>
18.0315

>  <SCORE.SYSTEM.POLAR>
-5.22183

>  <SCORE.SYSTEM.REPUL>
1.16943

>  <SCORE.SYSTEM.VDW>
-8.1694

>  <SCORE.SYSTEM.norm>
-0.460863

>  <SCORE.heavy>
24

>  <SCORE.norm>
-1.98186

$$$$
TOL.pdb
  rDOCK(R)          3D
libRbt.so/2013.1/901 2013/11/27
 25 26  0  0  0  0  0  0  0  0999 V2000
   23.4565   26.5753   73.4294 C   0  0  0  0  0  0
   24.4043   26.0876   72.5900 F   0  0  0  0  0  0
   22.8258   25.5035   73.9785 F   0  0  0  0  0  0
   24.0861   27.2337   74.4388 F   0  0  0  0  0  0
   22.4742   27.5126   72.6941 C   0  0  0  0  0  0
   22.1495   28.8214   73.1367 C   0  0  0  0  0  0
   22.7029   29.2952   74.2383 O   0  0  0  0  0  0
   23.6805   30.2900   73.9822 C   0  0  0  0  0  0
   21.2342   29.5968   72.3916 C   0  0  0  0  0  0
   20.6479   29.0900   71.2263 C   0  0  0  0  0  0
   20.9659   27.7903   70.7851 C   0  0  0  0  0  0
   20.3653   27.2891   69.6065 C   0  0  0  0  0  0
   20.6836   25.9939   69.1665 C   0  0  0  0  0  0
   21.5840   25.2042   69.8853 C   0  0  0  0  0  0
   22.1766   25.7051   71.0512 C   0  0  0  0  0  0
   21.8751   26.9998   71.5131 C   0  0  0  0  0  0
   19.3828   28.0729   68.7683 C   0  0  0  0  0  0
   19.8919   28.7364   67.2728 S   0  0  0  0  0  0
   18.1285   28.2262   69.1954 N   0  0  0  0  0  0
   17.6924   27.5616   70.4185 C   0  0  0  0  0  0
   17.1618   29.0331   68.4574 C   0  0  0  0  0  0
   16.0622   29.5849   69.3809 C   0  0  0  0  0  0
   16.3048   30.0384   70.4683 O   0  0  0  0  0  0
   14.8197   29.5323   68.8882 O   0  0  0  0  0  0
   14.6831   29.5281   67.9613 H   0  0  0  0  0  0
  1  2  1  0  0  0
  1  3  1  0  0  0
  1  4  1  0  0  0
  1  5  1  0  0  0
  5  6  2  0  0  0
  5 16  1  0  0  0
  6  7  1  0  0  0
  6  9  1  0  0  0
  7  8  1  0  0  0
  9 10  2  0  0  0
 10 11  1  0  0  0
 11 12  2  0  0  0
 11 16  1  0  0  0
 12 13  1  0  0  0
 12 17  1  0  0  0
 13 14  2  0  0  0
 14 15  1  0  0  0
 15 16  2  0  0  0
 17 18  2  0  0  0
 17 19  1  0  0  0
 19 20  1  0  0  0
 19 21  1  0  0  0
 21 22  1  0  0  0
 22 23  2  0  0  0
 22 24  1  0  0  0
 24 25  1  0  0  0
M  END
>  <CHROM.0>
125.74076945,73.38004644,54.79481228,153.77857368,168.02236547,-34.97559859
-115.28096769,-130.44707205,-61.18859492,-61.54190337,71.75191168,-61.41326028
-60.50081437,41.91246791

>  <CHROM.1>
-128.36451107,107.44401032,105.29091945,-154.16500299,42.59402917,-25.59408274
20.63026316,27.93425794,71.03740678,-0.32570011,0.59993270,-2.24668132

>  <FORMUL>
      TOL    C16 H14 F3 N1 O3 S1

>  <HET>
 TOL  A 320      24

>  <HETNAM>
     TOL TOLRESTAT

>  <Name>
TOL.pdb

>  <RI>
0

>  <Rbt.Current_Directory>
/home/malgorzata/Desktop/rDOCK_IFD/Wyniki/1_aldose_rductase

>  <Rbt.Executable>
rbdock ($Id: //depot/dev/client3/rdock/2013.1/src/exe/rbdock.cxx#4 $)

>  <Rbt.Library>
libRbt.so (2013.1, Build901 2013/11/27)

>  <Rbt.Parameter_File>
/home/malgorzata/Desktop/rDock_2013.1_src/data/scripts/soft_docking.prm

>  <Rbt.Receptor>
cavity.prm

>  <SCORE>
-38.84

>  <SCORE.INTER>
-31.114

>  <SCORE.INTER.CONST>
1

>  <SCORE.INTER.POLAR>
-3.00361

>  <SCORE.INTER.REPUL>
0.0519521

>  <SCORE.INTER.ROT>
5

>  <SCORE.INTER.VDW>
-31.5615

>  <SCORE.INTER.norm>
-1.29642

>  <SCORE.INTRA>
-2.23955

>  <SCORE.INTRA.DIHEDRAL>
8.23098

>  <SCORE.INTRA.DIHEDRAL.0>
16.9783

>  <SCORE.INTRA.POLAR>
0

>  <SCORE.INTRA.POLAR.0>
0

>  <SCORE.INTRA.REPUL>
0

>  <SCORE.INTRA.REPUL.0>
0

>  <SCORE.INTRA.VDW>
-3.88575

>  <SCORE.INTRA.VDW.0>
4.87734

>  <SCORE.INTRA.norm>
-0.0933147

>  <SCORE.RESTR>
1.29078

>  <SCORE.RESTR.CAVITY>
0.258155

>  <SCORE.RESTR.norm>
0.0537824

>  <SCORE.SYSTEM>
-6.77717

>  <SCORE.SYSTEM.CONST>
0

>  <SCORE.SYSTEM.DIHEDRAL>
10.3178

>  <SCORE.SYSTEM.POLAR>
-3.16066

>  <SCORE.SYSTEM.REPUL>
1.16943

>  <SCORE.SYSTEM.VDW>
-7.03701

>  <SCORE.SYSTEM.norm>
-0.282382

>  <SCORE.heavy>
24

>  <SCORE.norm>
-1.61833

$$$$
TOL.pdb
  rDOCK(R)          3D
libRbt.so/2013.1/901 2013/11/27
 25 26  0  0  0  0  0  0  0  0999 V2000
   15.6943   29.2786   65.4079 C   0  0  0  0  0  0
   14.7413   28.3364   65.6197 F   0  0  0  0  0  0
   15.8261   29.4116   64.0614 F   0  0  0  0  0  0
   15.2294   30.4632   65.8868 F   0  0  0  0  0  0
   17.0285   28.9000   66.0869 C   0  0  0  0  0  0
   18.2684   28.8171   65.4014 C   0  0  0  0  0  0
   18.3181   29.0729   64.1067 O   0  0  0  0  0  0
   18.2278   27.9044   63.3083 C   0  0  0  0  0  0
   19.4318   28.4578   66.1166 C   0  0  0  0  0  0
   19.3743   28.1849   67.4880 C   0  0  0  0  0  0
   18.1449   28.2638   68.1714 C   0  0  0  0  0  0
   18.0999   27.9841   69.5573 C   0  0  0  0  0  0
   16.8742   28.0641   70.2383 C   0  0  0  0  0  0
   15.7074   28.4150   69.5554 C   0  0  0  0  0  0
   15.7571   28.6917   68.1834 C   0  0  0  0  0  0
   16.9726   28.6193   67.4778 C   0  0  0  0  0  0
   19.3108   27.5980   70.3738 C   0  0  0  0  0  0
   19.7785   25.9519   70.4616 S   0  0  0  0  0  0
   20.0090   28.5441   71.0039 N   0  0  0  0  0  0
   19.6533   29.9475   70.8259 C   0  0  0  0  0  0
   21.1433   28.2153   71.8613 C   0  0  0  0  0  0
   22.3523   27.7333   71.0414 C   0  0  0  0  0  0
   22.7104   28.2906   70.0373 O   0  0  0  0  0  0
   22.9816   26.6570   71.5260 O   0  0  0  0  0  0
   23.9037   26.5549   71.3949 H   0  0  0  0  0  0
  1  2  1  0  0  0
  1  3  1  0  0  0
  1  4  1  0  0  0
  1  5  1  0  0  0
  5  6  2  0  0  0
  5 16  1  0  0  0
  6  7  1  0  0  0
  6  9  1  0  0  0
  7  8  1  0  0  0
  9 10  2  0  0  0
 10 11  1  0  0  0
 11 12  2  0  0  0
 11 16  1  0  0  0
 12 13  1  0  0  0
 12 17  1  0  0  0
 13 14  2  0  0  0
 14 15  1  0  0  0
 15 16  2  0  0  0
 17 18  2  0  0  0
 17 19  1  0  0  0
 19 20  1  0  0  0
 19 21  1  0  0  0
 21 22  1  0  0  0
 22 23  2  0  0  0
 22 24  1  0  0  0
 24 25  1  0  0  0
M  END
>  <CHROM.0>
-11.44585222,59.46596829,-105.93996146,159.47506984,-22.46028858,61.70741016
74.71933944,-116.90944227,-61.18859492,-61.54190337,156.25676369,-61.41326028
-60.50081437,112.32489134

>  <CHROM.1>
125.05112259,-95.11978927,-86.72466630,71.14664647,44.58418866,-148.59670922
18.42845038,28.31811182,68.08913973,2.26836769,0.17929286,-1.46033381

>  <FORMUL>
      TOL    C16 H14 F3 N1 O3 S1

>  <HET>
 TOL  A 320      24

>  <HETNAM>
     TOL TOLRESTAT

>  <Name>
TOL.pdb

>  <RI>
0

>  <Rbt.Current_Directory>
/home/malgorzata/Desktop/rDOCK_IFD/Wyniki/1_aldose_rductase

>  <Rbt.Executable>
rbdock ($Id: //depot/dev/client3/rdock/2013.1/src/exe/rbdock.cxx#4 $)

>  <Rbt.Library>
libRbt.so (2013.1, Build901 2013/11/27)

>  <Rbt.Parameter_File>
/home/malgorzata/Desktop/rDock_2013.1_src/data/scripts/soft_docking.prm

>  <Rbt.Receptor>
cavity.prm

>  <SCORE>
-49.9218

>  <SCORE.INTER>
-34.8524

>  <SCORE.INTER.CONST>
1

>  <SCORE.INTER.POLAR>
-2.40249

>  <SCORE.INTER.REPUL>
0

>  <SCORE.INTER.ROT>
5

>  <SCORE.INTER.VDW>
-37.0839

>  <SCORE.INTER.norm>
-1.45218

>  <SCORE.INTRA>
-5.40255

>  <SCORE.INTRA.DIHEDRAL>
11.263

>  <SCORE.INTRA.DIHEDRAL.0>
16.9783

>  <SCORE.INTRA.POLAR>
0

>  <SCORE.INTRA.POLAR.0>
0

>  <SCORE.INTRA.REPUL>
0

>  <SCORE.INTRA.REPUL.0>
0

>  <SCORE.INTRA.VDW>
-7.65515

>  <SCORE.INTRA.VDW.0>
4.87734

>  <SCORE.INTRA.norm>
-0.225106

>  <SCORE.RESTR>
0

>  <SCORE.RESTR.CAVITY>
0

>  <SCORE.RESTR.norm>
0

>  <SCORE.SYSTEM>
-9.66692

>  <SCORE.SYSTEM.CONST>
0

>  <SCORE.SYSTEM.DIHEDRAL>
9.7563

>  <SCORE.SYSTEM.POLAR>
-3.70809

>  <SCORE.SYSTEM.REPUL>
1.16943

>  <SCORE.SYSTEM.VDW>
-7.78473

>  <SCORE.SYSTEM.norm>
-0.402788

>  <SCORE.heavy>
24

>  <SCORE.norm>
-2.08008

$$$$
TOL.pdb
  rDOCK(R)          3D
libRbt.so/2013.1/901 2013/11/27
 25 26  0  0  0  0  0  0  0  0999 V2000
   24.3408   28.8251   72.5069 C   0  0  0  0  0  0
   25.3178   27.9109   72.7319 F   0  0  0  0  0  0
   23.9807   29.3248   73.7188 F   0  0  0  0  0  0
   24.8783   29.8490   71.7918 F   0  0  0  0  0  0
   23.1429   28.2036   71.7565 C   0  0  0  0  0  0
   23.1653   26.9152   71.1619 C   0  0  0  0  0  0
   24.2593   26.1792   71.2372 O   0  0  0  0  0  0
   24.4646   25.6239   72.5258 C   0  0  0  0  0  0
   22.0148   26.4410   70.4942 C   0  0  0  0  0  0
   20.8584   27.2252   70.4143 C   0  0  0  0  0  0
   20.8332   28.5057   71.0013 C   0  0  0  0  0  0
   19.6587   29.2890   70.9123 C   0  0  0  0  0  0
   19.6338   30.5650   71.4986 C   0  0  0  0  0  0
   20.7582   31.0599   72.1633 C   0  0  0  0  0  0
   21.9185   30.2803   72.2494 C   0  0  0  0  0  0
   21.9692   28.9984   71.6711 C   0  0  0  0  0  0
   18.3989   28.8336   70.2142 C   0  0  0  0  0  0
   16.9741   28.5745   71.1302 S   0  0  0  0  0  0
   18.4070   28.6531   68.8925 N   0  0  0  0  0  0
   19.6013   28.9833   68.1229 C   0  0  0  0  0  0
   17.2371   28.1469   68.1818 C   0  0  0  0  0  0
   16.3193   29.2898   67.7153 C   0  0  0  0  0  0
   16.4998   29.8766   66.6808 O   0  0  0  0  0  0
   15.3034   29.5807   68.5354 O   0  0  0  0  0  0
   14.4618   29.1937   68.3942 H   0  0  0  0  0  0
  1  2  1  0  0  0
  1  3  1  0  0  0
  1  4  1  0  0  0
  1  5  1  0  0  0
  5  6  2  0  0  0
  5 16  1  0  0  0
  6  7  1  0  0  0
  6  9  1  0  0  0
  7  8  1  0  0  0
  9 10  2  0  0  0
 10 11  1  0  0  0
 11 12  2  0  0  0
 11 16  1  0  0  0
 12 13  1  0  0  0
 12 17  1  0  0  0
 13 14  2  0  0  0
 14 15  1  0  0  0
 15 16  2  0  0  0
 17 18  2  0  0  0
 17 19  1  0  0  0
 19 20  1  0  0  0
 19 21  1  0  0  0
 21 22  1  0  0  0
 22 23  2  0  0  0
 22 24  1  0  0  0
 24 25  1  0  0  0
M  END
>  <CHROM.0>
147.44674247,47.28644540,119.13134085,166.57939742,-44.75190534,41.81472848
44.60392807,-102.21896935,-61.18859492,-61.54190337,-134.82728527,-61.41326028
-60.50081437,-28.86598575

>  <CHROM.1>
-10.87556130,74.33353630,114.47591529,90.22687822,85.09655731,-94.42115761
20.74243968,28.63128201,70.77049526,0.12580165,-0.45472890,0.58077475

>  <FORMUL>
      TOL    C16 H14 F3 N1 O3 S1

>  <HET>
 TOL  A 320      24

>  <HETNAM>
     TOL TOLRESTAT

>  <Name>
TOL.pdb

>  <RI>
0

>  <Rbt.Current_Directory>
/home/malgorzata/Desktop/rDOCK_IFD/Wyniki/1_aldose_rductase

>  <Rbt.Executable>
rbdock ($Id: //depot/dev/client3/rdock/2013.1/src/exe/rbdock.cxx#4 $)

>  <Rbt.Library>
libRbt.so (2013.1, Build901 2013/11/27)

>  <Rbt.Parameter_File>
/home/malgorzata/Desktop/rDock_2013.1_src/data/scripts/soft_docking.prm

>  <Rbt.Receptor>
cavity.prm

>  <SCORE>
-46.8846

>  <SCORE.INTER>
-45.2845

>  <SCORE.INTER.CONST>
1

>  <SCORE.INTER.POLAR>
-4.49834

>  <SCORE.INTER.REPUL>
0.121601

>  <SCORE.INTER.ROT>
5

>  <SCORE.INTER.VDW>
-40.9982

>  <SCORE.INTER.norm>
-1.88685

>  <SCORE.INTRA>
3.61752

>  <SCORE.INTRA.DIHEDRAL>
25.6958

>  <SCORE.INTRA.DIHEDRAL.0>
16.9783

>  <SCORE.INTRA.POLAR>
0

>  <SCORE.INTRA.POLAR.0>
0

>  <SCORE.INTRA.REPUL>
0

>  <SCORE.INTRA.REPUL.0>
0

>  <SCORE.INTRA.VDW>
-1.52164

>  <SCORE.INTRA.VDW.0>
4.87734

>  <SCORE.INTRA.norm>
0.15073

>  <SCORE.RESTR>
2.03972

>  <SCORE.RESTR.CAVITY>
0.407945

>  <SCORE.RESTR.norm>
0.0849885

>  <SCORE.SYSTEM>
-7.2573

>  <SCORE.SYSTEM.CONST>
0

>  <SCORE.SYSTEM.DIHEDRAL>
12.6138

>  <SCORE.SYSTEM.POLAR>
-3.72465

>  <SCORE.SYSTEM.REPUL>
1.16943

>  <SCORE.SYSTEM.VDW>
-6.74754

>  <SCORE.SYSTEM.norm>
-0.302387

>  <SCORE.heavy>
24

>  <SCORE.norm>
-1.95352

$$$$
TOL.pdb
  rDOCK(R)          3D
libRbt.so/2013.1/901 2013/11/27
 25 26  0  0  0  0  0  0  0  0999 V2000
   15.3812   30.5821   65.4255 C   0  0  0  0  0  0
   15.1890   31.7803   66.0324 F   0  0  0  0  0  0
   14.2440   29.8600   65.6081 F   0  0  0  0  0  0
   15.5094   30.8021   64.0899 F   0  0  0  0  0  0
   16.6251   29.8562   65.9822 C   0  0  0  0  0  0
   17.7908   29.5872   65.2187 C   0  0  0  0  0  0
   17.8468   29.9673   63.9550 O   0  0  0  0  0  0
   18.1179   28.8956   63.0668 C   0  0  0  0  0  0
   18.8738   28.9124   65.8235 C   0  0  0  0  0  0
   18.8093   28.5090   67.1620 C   0  0  0  0  0  0
   17.6529   28.7720   67.9225 C   0  0  0  0  0  0
   17.5997   28.3577   69.2740 C   0  0  0  0  0  0
   16.4470   28.6212   70.0319 C   0  0  0  0  0  0
   15.3601   29.2851   69.4585 C   0  0  0  0  0  0
   15.4178   29.6940   68.1202 C   0  0  0  0  0  0
   16.5612   29.4427   67.3393 C   0  0  0  0  0  0
   18.7269   27.6356   69.9739 C   0  0  0  0  0  0
   19.1424   26.0468   69.4850 S   0  0  0  0  0  0
   19.3938   28.2485   70.9531 N   0  0  0  0  0  0
   19.0912   29.6382   71.2773 C   0  0  0  0  0  0
   20.4427   27.5691   71.7068 C   0  0  0  0  0  0
   21.8281   27.7917   71.0763 C   0  0  0  0  0  0
   22.8464   27.4880   71.6400 O   0  0  0  0  0  0
   21.8215   28.3392   69.8558 O   0  0  0  0  0  0
   22.6302   28.5558   69.4351 H   0  0  0  0  0  0
  1  2  1  0  0  0
  1  3  1  0  0  0
  1  4  1  0  0  0
  1  5  1  0  0  0
  5  6  2  0  0  0
  5 16  1  0  0  0
  6  7  1  0  0  0
  6  9  1  0  0  0
  7  8  1  0  0  0
  9 10  2  0  0  0
 10 11  1  0  0  0
 11 12  2  0  0  0
 11 16  1  0  0  0
 12 13  1  0  0  0
 12 17  1  0  0  0
 13 14  2  0  0  0
 14 15  1  0  0  0
 15 16  2  0  0  0
 17 18  2  0  0  0
 17 19  1  0  0  0
 19 20  1  0  0  0
 19 21  1  0  0  0
 21 22  1  0  0  0
 22 23  2  0  0  0
 22 24  1  0  0  0
 24 25  1  0  0  0
M  END
>  <CHROM.0>
41.26158416,42.90188516,-99.60103579,47.27503305,-72.14418243,-46.18665904
149.97523997,-138.94355778,-61.18859492,-61.54190337,166.44219944,-61.41326028
-60.50081437,172.97484666

>  <CHROM.1>
-114.42792565,-123.71863562,-67.00253059,91.64407015,168.87975741,175.94296521
17.96948304,28.90762898,67.91581077,2.25552015,0.33804705,-1.40571411

>  <FORMUL>
      TOL    C16 H14 F3 N1 O3 S1

>  <HET>
 TOL  A 320      24

>  <HETNAM>
     TOL TOLRESTAT

>  <Name>
TOL.pdb

>  <RI>
0

>  <Rbt.Current_Directory>
/home/malgorzata/Desktop/rDOCK_IFD/Wyniki/1_aldose_rductase

>  <Rbt.Executable>
rbdock ($Id: //depot/dev/client3/rdock/2013.1/src/exe/rbdock.cxx#4 $)

>  <Rbt.Library>
libRbt.so (2013.1, Build901 2013/11/27)

>  <Rbt.Parameter_File>
/home/malgorzata/Desktop/rDock_2013.1_src/data/scripts/soft_docking.prm

>  <Rbt.Receptor>
cavity.prm

>  <SCORE>
-45.8383

>  <SCORE.INTER>
-29.8769

>  <SCORE.INTER.CONST>
1

>  <SCORE.INTER.POLAR>
-1.36624

>  <SCORE.INTER.REPUL>
0.064811

>  <SCORE.INTER.ROT>
5

>  <SCORE.INTER.VDW>
-35.9557

>  <SCORE.INTER.norm>
-1.24487

>  <SCORE.INTRA>
-5.27959

>  <SCORE.INTRA.DIHEDRAL>
1.86392

>  <SCORE.INTRA.DIHEDRAL.0>
16.9783

>  <SCORE.INTRA.POLAR>
0

>  <SCORE.INTRA.POLAR.0>
0

>  <SCORE.INTRA.REPUL>
0

>  <SCORE.INTRA.REPUL.0>
0

>  <SCORE.INTRA.VDW>
-5.65238

>  <SCORE.INTRA.VDW.0>
4.87734

>  <SCORE.INTRA.norm>
-0.219983

>  <SCORE.RESTR>
0

>  <SCORE.RESTR.CAVITY>
0

>  <SCORE.RESTR.norm>
0

>  <SCORE.SYSTEM>
-10.6818

>  <SCORE.SYSTEM.CONST>
0

>  <SCORE.SYSTEM.DIHEDRAL>
10.538

>  <SCORE.SYSTEM.POLAR>
-3.95384

>  <SCORE.SYSTEM.REPUL>
1.16943

>  <SCORE.SYSTEM.VDW>
-8.35487

>  <SCORE.SYSTEM.norm>
-0.445075

>  <SCORE.heavy>
24

>  <SCORE.norm>
-1.90993

$$$$
