REMARK  5 active torsions:
REMARK  status: ('A' for Active; 'I' for Inactive)
REMARK    1  A    between atoms: C2_22137  and  C11_22146 
REMARK    2  A    between atoms: C3_22138  and  C4_22139 
REMARK    3  A    between atoms: C5_22140  and  N1_22152 
REMARK    4  A    between atoms: C8_22143  and  S1_22161 
REMARK    5  A    between atoms: N3_22154  and  S1_22161 
ROOT
HETATM    1  C1  S58 A 701      20.588  22.725  14.912  1.00  9.00     0.044 A 
HETATM    2  C2  S58 A 701      21.938  22.549  14.885  1.00  8.39     0.084 A 
HETATM    3  C3  S58 A 701      20.060  21.731  15.890  1.00  9.72     0.174 A 
HETATM    4  N1  S58 A 701      22.274  21.552  15.773  1.00 11.18    -0.230 N 
HETATM    5  N2  S58 A 701      21.075  21.077  16.388  1.00 11.04    -0.161 NA
ENDROOT
BRANCH   4   6
HETATM    6  C5  S58 A 701      23.502  21.257  16.307  1.00 11.70     0.083 A 
HETATM    7  C6  S58 A 701      24.056  22.188  17.195  1.00 10.08     0.020 A 
HETATM    8  C7  S58 A 701      25.268  21.908  17.809  1.00 13.76     0.014 A 
HETATM    9  C8  S58 A 701      25.925  20.687  17.533  1.00 13.58     0.103 A 
HETATM   10  C9  S58 A 701      25.366  19.756  16.642  1.00 15.22     0.014 A 
HETATM   11  C10 S58 A 701      24.147  20.046  16.024  1.00 14.22     0.020 A 
BRANCH   9  12
HETATM   12  S1  S58 A 701      27.512  20.304  18.345  1.00 11.93     0.258 S 
HETATM   13  O1  S58 A 701      28.410  21.399  18.152  1.00  9.06    -0.201 OA
HETATM   14  O2  S58 A 701      28.050  19.122  17.732  1.00 10.85    -0.201 OA
BRANCH  12  15
HETATM   15  N3  S58 A 701      27.183  20.015  20.045  1.00  8.29    -0.324 N 
HETATM   16 1HN3 S58 A 701      26.283  19.763  20.329  1.00 17.00     0.169 HD
HETATM   17 2HN3 S58 A 701      27.901  20.103  20.709  1.00 17.00     0.169 HD
ENDBRANCH  12  15
ENDBRANCH   9  12
ENDBRANCH   4   6
BRANCH   2  18
HETATM   18  C11 S58 A 701      22.873  23.299  13.992  1.00  5.71     0.018 A 
HETATM   19  C12 S58 A 701      24.105  23.774  14.510  1.00  5.31     0.002 A 
HETATM   20  C13 S58 A 701      25.060  24.347  13.651  1.00  2.00     0.007 A 
HETATM   21  C14 S58 A 701      24.797  24.444  12.287  1.00  2.00     0.035 A 
HETATM   22  C15 S58 A 701      23.572  24.005  11.773  1.00  2.25     0.007 A 
HETATM   23 BR1  S58 A 701      26.136  24.999  11.143  1.00  4.05    -0.049 Br
HETATM   24  C16 S58 A 701      22.603  23.428  12.628  1.00  2.30     0.002 A 
ENDBRANCH   2  18
BRANCH   3  25
HETATM   25  C4  S58 A 701      18.634  21.427  16.237  1.00  8.58     0.437 C 
HETATM   26  F1  S58 A 701      18.169  22.368  17.096  1.00  2.57    -0.164 F 
HETATM   27  F2  S58 A 701      18.543  20.192  16.757  1.00  8.03    -0.164 F 
HETATM   28  F3  S58 A 701      17.916  21.480  15.110  1.00 10.66    -0.164 F 
ENDBRANCH   3  25
TORSDOF 5
