REMARK  5 active torsions:
REMARK  status: ('A' for Active; 'I' for Inactive)
REMARK    1  A    between atoms: C2_22137  and  C11_22146 
REMARK    2  A    between atoms: C3_22138  and  C4_22139 
REMARK    3  A    between atoms: C5_22140  and  N1_22152 
REMARK    4  A    between atoms: C8_22143  and  S1_22161 
REMARK    5  A    between atoms: N3_22154  and  S1_22161 
ROOT
HETATM    1  C1  S58 A 701      20.749  22.870  14.734  1.00  9.00     0.044 A 
HETATM    2  C2  S58 A 701      22.071  22.560  14.840  1.00  8.39     0.084 A 
HETATM    3  C3  S58 A 701      20.036  21.973  15.689  1.00  9.72     0.174 A 
HETATM    4  N1  S58 A 701      22.221  21.571  15.785  1.00 11.18    -0.230 N 
HETATM    5  N2  S58 A 701      20.929  21.242  16.299  1.00 11.04    -0.161 NA
ENDROOT
BRANCH   4   6
HETATM    6  C5  S58 A 701      23.359  21.177  16.441  1.00 11.70     0.083 A 
HETATM    7  C6  S58 A 701      23.944  19.968  16.045  1.00 10.08     0.020 A 
HETATM    8  C7  S58 A 701      25.129  19.557  16.637  1.00 13.76     0.014 A 
HETATM    9  C8  S58 A 701      25.731  20.364  17.630  1.00 13.58     0.103 A 
HETATM   10  C9  S58 A 701      25.141  21.577  18.024  1.00 15.22     0.014 A 
HETATM   11  C10 S58 A 701      23.946  21.984  17.427  1.00 14.22     0.020 A 
BRANCH   9  12
HETATM   12  S1  S58 A 701      27.296  19.839  18.404  1.00 11.93     0.258 S 
HETATM   13  O1  S58 A 701      28.307  20.806  18.114  1.00  9.06    -0.201 OA
HETATM   14  O2  S58 A 701      27.664  18.570  17.843  1.00 10.85    -0.201 OA
BRANCH  12  15
HETATM   15  N3  S58 A 701      27.010  19.684  20.129  1.00  8.29    -0.324 N 
HETATM   16 1HN3 S58 A 701      27.629  20.098  20.762  1.00 17.00     0.169 HD
HETATM   17 2HN3 S58 A 701      26.231  19.185  20.458  1.00 17.00     0.169 HD
ENDBRANCH  12  15
ENDBRANCH   9  12
ENDBRANCH   4   6
BRANCH   2  18
HETATM   18  C11 S58 A 701      23.155  23.177  14.015  1.00  5.71     0.018 A 
HETATM   19  C12 S58 A 701      22.954  23.365  12.624  1.00  5.31     0.002 A 
HETATM   20  C13 S58 A 701      23.898  24.079  11.863  1.00  2.00     0.007 A 
HETATM   21  C14 S58 A 701      25.031  24.605  12.479  1.00  2.00     0.035 A 
HETATM   22  C15 S58 A 701      25.250  24.397  13.845  1.00  2.25     0.007 A 
HETATM   23 BR1  S58 A 701      26.150  25.716  11.520  1.00  4.05    -0.049 Br
HETATM   24  C16 S58 A 701      24.308  23.680  14.621  1.00  2.30     0.002 A 
ENDBRANCH   2  18
BRANCH   3  25
HETATM   25  C4  S58 A 701      18.560  21.826  15.910  1.00  8.58     0.437 C 
HETATM   26  F1  S58 A 701      18.232  22.347  17.119  1.00  2.57    -0.164 F 
HETATM   27  F2  S58 A 701      18.210  20.534  15.815  1.00  8.03    -0.164 F 
HETATM   28  F3  S58 A 701      17.930  22.521  14.956  1.00 10.66    -0.164 F 
ENDBRANCH   3  25
TORSDOF 5
