REMARK  5 active torsions:
REMARK  status: ('A' for Active; 'I' for Inactive)
REMARK    1  A    between atoms: C2_22137  and  C11_22146 
REMARK    2  A    between atoms: C3_22138  and  C4_22139 
REMARK    3  A    between atoms: C5_22140  and  N1_22152 
REMARK    4  A    between atoms: C8_22143  and  S1_22161 
REMARK    5  A    between atoms: N3_22154  and  S1_22161 
ROOT
HETATM    1  C1  S58 A 701      20.715  22.726  14.845  1.00  9.00     0.044 A 
HETATM    2  C2  S58 A 701      22.045  22.445  14.926  1.00  8.39     0.084 A 
HETATM    3  C3  S58 A 701      20.037  21.800  15.798  1.00  9.72     0.174 A 
HETATM    4  N1  S58 A 701      22.232  21.447  15.856  1.00 11.18    -0.230 N 
HETATM    5  N2  S58 A 701      20.956  21.081  16.384  1.00 11.04    -0.161 NA
ENDROOT
BRANCH   4   6
HETATM    6  C5  S58 A 701      23.389  21.071  16.489  1.00 11.70     0.083 A 
HETATM    7  C6  S58 A 701      24.028  19.914  16.027  1.00 10.08     0.020 A 
HETATM    8  C7  S58 A 701      25.232  19.526  16.596  1.00 13.76     0.014 A 
HETATM    9  C8  S58 A 701      25.798  20.305  17.631  1.00 13.58     0.103 A 
HETATM   10  C9  S58 A 701      25.155  21.466  18.092  1.00 15.22     0.014 A 
HETATM   11  C10 S58 A 701      23.940  21.849  17.517  1.00 14.22     0.020 A 
BRANCH   9  12
HETATM   12  S1  S58 A 701      27.388  19.811  18.376  1.00 11.93     0.258 S 
HETATM   13  O1  S58 A 701      28.377  20.791  18.056  1.00  9.06    -0.201 OA
HETATM   14  O2  S58 A 701      27.764  18.543  17.817  1.00 10.85    -0.201 OA
BRANCH  12  15
HETATM   15  N3  S58 A 701      27.142  19.665  20.108  1.00  8.29    -0.324 N 
HETATM   16 1HN3 S58 A 701      26.433  19.086  20.450  1.00 17.00     0.169 HD
HETATM   17 2HN3 S58 A 701      27.715  20.162  20.731  1.00 17.00     0.169 HD
ENDBRANCH  12  15
ENDBRANCH   9  12
ENDBRANCH   4   6
BRANCH   2  18
HETATM   18  C11 S58 A 701      23.102  23.098  14.095  1.00  5.71     0.018 A 
HETATM   19  C12 S58 A 701      22.936  23.178  12.689  1.00  5.31     0.002 A 
HETATM   20  C13 S58 A 701      23.843  23.919  11.910  1.00  2.00     0.007 A 
HETATM   21  C14 S58 A 701      24.905  24.580  12.522  1.00  2.00     0.035 A 
HETATM   22  C15 S58 A 701      25.092  24.481  13.905  1.00  2.25     0.007 A 
HETATM   23 BR1  S58 A 701      25.960  25.719  11.523  1.00  4.05    -0.049 Br
HETATM   24  C16 S58 A 701      24.187  23.738  14.699  1.00  2.30     0.002 A 
ENDBRANCH   2  18
BRANCH   3  25
HETATM   25  C4  S58 A 701      18.569  21.616  16.038  1.00  8.58     0.437 C 
HETATM   26  F1  S58 A 701      18.194  22.350  17.116  1.00  2.57    -0.164 F 
HETATM   27  F2  S58 A 701      18.292  20.313  16.205  1.00  8.03    -0.164 F 
HETATM   28  F3  S58 A 701      17.916  22.067  14.961  1.00 10.66    -0.164 F 
ENDBRANCH   3  25
TORSDOF 5
