REMARK  5 active torsions:
REMARK  status: ('A' for Active; 'I' for Inactive)
REMARK    1  A    between atoms: C2_22137  and  C11_22146 
REMARK    2  A    between atoms: C3_22138  and  C4_22139 
REMARK    3  A    between atoms: C5_22140  and  N1_22152 
REMARK    4  A    between atoms: C8_22143  and  S1_22161 
REMARK    5  A    between atoms: N3_22154  and  S1_22161 
ROOT
HETATM    1  C1  S58 A 701      24.677  21.285  17.448  1.00  9.00     0.044 A 
HETATM    2  C2  S58 A 701      24.045  21.532  16.267  1.00  8.39     0.084 A 
HETATM    3  C3  S58 A 701      26.138  21.377  17.162  1.00  9.72     0.174 A 
HETATM    4  N1  S58 A 701      24.991  21.783  15.300  1.00 11.18    -0.230 N 
HETATM    5  N2  S58 A 701      26.284  21.689  15.903  1.00 11.04    -0.161 NA
ENDROOT
BRANCH   4   6
HETATM    6  C5  S58 A 701      24.829  22.379  14.076  1.00 11.70     0.083 A 
HETATM    7  C6  S58 A 701      25.346  23.670  13.916  1.00 10.08     0.020 A 
HETATM    8  C7  S58 A 701      25.261  24.292  12.679  1.00 13.76     0.014 A 
HETATM    9  C8  S58 A 701      24.656  23.612  11.597  1.00 13.58     0.103 A 
HETATM   10  C9  S58 A 701      24.140  22.316  11.760  1.00 15.22     0.014 A 
HETATM   11  C10 S58 A 701      24.226  21.697  13.010  1.00 14.22     0.020 A 
BRANCH   9  12
HETATM   12  S1  S58 A 701      24.552  24.415   9.962  1.00 11.93     0.258 S 
HETATM   13  O1  S58 A 701      25.787  24.225   9.270  1.00  9.06    -0.201 OA
HETATM   14  O2  S58 A 701      24.324  25.817  10.172  1.00 10.85    -0.201 OA
BRANCH  12  15
HETATM   15  N3  S58 A 701      23.199  23.699   9.103  1.00  8.29    -0.324 N 
HETATM   16 1HN3 S58 A 701      22.507  24.274   8.722  1.00 17.00     0.169 HD
HETATM   17 2HN3 S58 A 701      23.138  22.724   9.003  1.00 17.00     0.169 HD
ENDBRANCH  12  15
ENDBRANCH   9  12
ENDBRANCH   4   6
BRANCH   2  18
HETATM   18  C11 S58 A 701      22.563  21.484  16.073  1.00  5.71     0.018 A 
HETATM   19  C12 S58 A 701      21.798  20.512  16.767  1.00  5.31     0.002 A 
HETATM   20  C13 S58 A 701      20.392  20.548  16.714  1.00  2.00     0.007 A 
HETATM   21  C14 S58 A 701      19.751  21.544  15.982  1.00  2.00     0.035 A 
HETATM   22  C15 S58 A 701      20.500  22.488  15.271  1.00  2.25     0.007 A 
HETATM   23 BR1  S58 A 701      17.916  21.711  16.093  1.00  4.05    -0.049 Br
HETATM   24  C16 S58 A 701      21.914  22.461  15.316  1.00  2.30     0.002 A 
ENDBRANCH   2  18
BRANCH   3  25
HETATM   25  C4  S58 A 701      27.290  21.101  18.081  1.00  8.58     0.437 C 
HETATM   26  F1  S58 A 701      28.146  22.153  18.057  1.00  2.57    -0.164 F 
HETATM   27  F2  S58 A 701      27.897  19.958  17.724  1.00  8.03    -0.164 F 
HETATM   28  F3  S58 A 701      26.805  20.970  19.321  1.00 10.66    -0.164 F 
ENDBRANCH   3  25
TORSDOF 5
