REMARK  5 active torsions:
REMARK  status: ('A' for Active; 'I' for Inactive)
REMARK    1  A    between atoms: C2_22137  and  C11_22146 
REMARK    2  A    between atoms: C3_22138  and  C4_22139 
REMARK    3  A    between atoms: C5_22140  and  N1_22152 
REMARK    4  A    between atoms: C8_22143  and  S1_22161 
REMARK    5  A    between atoms: N3_22154  and  S1_22161 
ROOT
HETATM    1  C1  S58 A 701      20.605  22.723  14.911  1.00  9.00     0.044 A 
HETATM    2  C2  S58 A 701      21.955  22.547  14.890  1.00  8.39     0.084 A 
HETATM    3  C3  S58 A 701      20.074  21.735  15.895  1.00  9.72     0.174 A 
HETATM    4  N1  S58 A 701      22.288  21.556  15.786  1.00 11.18    -0.230 N 
HETATM    5  N2  S58 A 701      21.086  21.085  16.400  1.00 11.04    -0.161 NA
ENDROOT
BRANCH   4   6
HETATM    6  C5  S58 A 701      23.514  21.266  16.328  1.00 11.70     0.083 A 
HETATM    7  C6  S58 A 701      24.008  22.140  17.305  1.00 10.08     0.020 A 
HETATM    8  C7  S58 A 701      25.215  21.857  17.926  1.00 13.76     0.014 A 
HETATM    9  C8  S58 A 701      25.929  20.690  17.567  1.00 13.58     0.103 A 
HETATM   10  C9  S58 A 701      25.430  19.816  16.587  1.00 15.22     0.014 A 
HETATM   11  C10 S58 A 701      24.215  20.109  15.963  1.00 14.22     0.020 A 
BRANCH   9  12
HETATM   12  S1  S58 A 701      27.510  20.302  18.388  1.00 11.93     0.258 S 
HETATM   13  O1  S58 A 701      28.398  21.411  18.235  1.00  9.06    -0.201 OA
HETATM   14  O2  S58 A 701      28.068  19.144  17.749  1.00 10.85    -0.201 OA
BRANCH  12  15
HETATM   15  N3  S58 A 701      27.165  19.963  20.075  1.00  8.29    -0.324 N 
HETATM   16 1HN3 S58 A 701      26.281  19.636  20.333  1.00 17.00     0.169 HD
HETATM   17 2HN3 S58 A 701      27.858  20.100  20.757  1.00 17.00     0.169 HD
ENDBRANCH  12  15
ENDBRANCH   9  12
ENDBRANCH   4   6
BRANCH   2  18
HETATM   18  C11 S58 A 701      22.894  23.291  13.996  1.00  5.71     0.018 A 
HETATM   19  C12 S58 A 701      24.133  23.751  14.509  1.00  5.31     0.002 A 
HETATM   20  C13 S58 A 701      25.090  24.318  13.647  1.00  2.00     0.007 A 
HETATM   21  C14 S58 A 701      24.820  24.423  12.285  1.00  2.00     0.035 A 
HETATM   22  C15 S58 A 701      23.588  23.999  11.776  1.00  2.25     0.007 A 
HETATM   23 BR1  S58 A 701      26.159  24.969  11.137  1.00  4.05    -0.049 Br
HETATM   24  C16 S58 A 701      22.618  23.428  12.634  1.00  2.30     0.002 A 
ENDBRANCH   2  18
BRANCH   3  25
HETATM   25  C4  S58 A 701      18.646  21.433  16.238  1.00  8.58     0.437 C 
HETATM   26  F1  S58 A 701      18.197  22.346  17.135  1.00  2.57    -0.164 F 
HETATM   27  F2  S58 A 701      18.544  20.181  16.711  1.00  8.03    -0.164 F 
HETATM   28  F3  S58 A 701      17.922  21.537  15.118  1.00 10.66    -0.164 F 
ENDBRANCH   3  25
TORSDOF 5
