REMARK  5 active torsions:
REMARK  status: ('A' for Active; 'I' for Inactive)
REMARK    1  A    between atoms: C2_22137  and  C11_22146 
REMARK    2  A    between atoms: C3_22138  and  C4_22139 
REMARK    3  A    between atoms: C5_22140  and  N1_22152 
REMARK    4  A    between atoms: C8_22143  and  S1_22161 
REMARK    5  A    between atoms: N3_22154  and  S1_22161 
ROOT
HETATM    1  C1  S58 A 701      24.398  21.001  17.545  1.00  9.00     0.044 A 
HETATM    2  C2  S58 A 701      23.851  21.422  16.371  1.00  8.39     0.084 A 
HETATM    3  C3  S58 A 701      25.853  20.808  17.278  1.00  9.72     0.174 A 
HETATM    4  N1  S58 A 701      24.848  21.520  15.426  1.00 11.18    -0.230 N 
HETATM    5  N2  S58 A 701      26.083  21.140  16.036  1.00 11.04    -0.161 NA
ENDROOT
BRANCH   4   6
HETATM    6  C5  S58 A 701      24.832  22.189  14.229  1.00 11.70     0.083 A 
HETATM    7  C6  S58 A 701      24.294  21.517  13.125  1.00 10.08     0.020 A 
HETATM    8  C7  S58 A 701      24.201  22.173  11.906  1.00 13.76     0.014 A 
HETATM    9  C8  S58 A 701      24.648  23.510  11.796  1.00 13.58     0.103 A 
HETATM   10  C9  S58 A 701      25.187  24.181  12.907  1.00 15.22     0.014 A 
HETATM   11  C10 S58 A 701      25.282  23.513  14.130  1.00 14.22     0.020 A 
BRANCH   9  12
HETATM   12  S1  S58 A 701      24.518  24.385  10.202  1.00 11.93     0.258 S 
HETATM   13  O1  S58 A 701      25.738  24.219   9.478  1.00  9.06    -0.201 OA
HETATM   14  O2  S58 A 701      24.304  25.778  10.477  1.00 10.85    -0.201 OA
BRANCH  12  15
HETATM   15  N3  S58 A 701      23.144  23.715   9.338  1.00  8.29    -0.324 N 
HETATM   16 1HN3 S58 A 701      22.457  24.312   8.982  1.00 17.00     0.169 HD
HETATM   17 2HN3 S58 A 701      23.067  22.745   9.210  1.00 17.00     0.169 HD
ENDBRANCH  12  15
ENDBRANCH   9  12
ENDBRANCH   4   6
BRANCH   2  18
HETATM   18  C11 S58 A 701      22.395  21.684  16.160  1.00  5.71     0.018 A 
HETATM   19  C12 S58 A 701      21.991  22.716  15.275  1.00  5.31     0.002 A 
HETATM   20  C13 S58 A 701      20.631  22.877  14.949  1.00  2.00     0.007 A 
HETATM   21  C14 S58 A 701      19.681  22.017  15.494  1.00  2.00     0.035 A 
HETATM   22  C15 S58 A 701      20.069  21.016  16.391  1.00  2.25     0.007 A 
HETATM   23 BR1  S58 A 701      17.936  22.100  14.897  1.00  4.05    -0.049 Br
HETATM   24  C16 S58 A 701      21.433  20.845  16.727  1.00  2.30     0.002 A 
ENDBRANCH   2  18
BRANCH   3  25
HETATM   25  C4  S58 A 701      26.908  20.266  18.195  1.00  8.58     0.437 C 
HETATM   26  F1  S58 A 701      26.371  20.055  19.423  1.00  2.57    -0.164 F 
HETATM   27  F2  S58 A 701      27.949  21.112  18.246  1.00  8.03    -0.164 F 
HETATM   28  F3  S58 A 701      27.322  19.094  17.699  1.00 10.66    -0.164 F 
ENDBRANCH   3  25
TORSDOF 5
