REMARK  5 active torsions:
REMARK  status: ('A' for Active; 'I' for Inactive)
REMARK    1  A    between atoms: C2_22137  and  C11_22146 
REMARK    2  A    between atoms: C3_22138  and  C4_22139 
REMARK    3  A    between atoms: C5_22140  and  N1_22152 
REMARK    4  A    between atoms: C8_22143  and  S1_22161 
REMARK    5  A    between atoms: N3_22154  and  S1_22161 
ROOT
HETATM    1  C1  S58 A 701      24.718  21.022  17.573  1.00  9.00     0.044 A 
HETATM    2  C2  S58 A 701      24.129  21.418  16.411  1.00  8.39     0.084 A 
HETATM    3  C3  S58 A 701      26.167  20.847  17.264  1.00  9.72     0.174 A 
HETATM    4  N1  S58 A 701      25.095  21.517  15.435  1.00 11.18    -0.230 N 
HETATM    5  N2  S58 A 701      26.354  21.164  16.012  1.00 11.04    -0.161 NA
ENDROOT
BRANCH   4   6
HETATM    6  C5  S58 A 701      25.033  22.169  14.230  1.00 11.70     0.083 A 
HETATM    7  C6  S58 A 701      24.241  21.594  13.229  1.00 10.08     0.020 A 
HETATM    8  C7  S58 A 701      24.098  22.246  12.013  1.00 13.76     0.014 A 
HETATM    9  C8  S58 A 701      24.751  23.483  11.803  1.00 13.58     0.103 A 
HETATM   10  C9  S58 A 701      25.544  24.057  12.811  1.00 15.22     0.014 A 
HETATM   11  C10 S58 A 701      25.687  23.393  14.031  1.00 14.22     0.020 A 
BRANCH   9  12
HETATM   12  S1  S58 A 701      24.558  24.355  10.213  1.00 11.93     0.258 S 
HETATM   13  O1  S58 A 701      25.769  24.231   9.464  1.00  9.06    -0.201 OA
HETATM   14  O2  S58 A 701      24.303  25.740  10.495  1.00 10.85    -0.201 OA
BRANCH  12  15
HETATM   15  N3  S58 A 701      23.191  23.640   9.376  1.00  8.29    -0.324 N 
HETATM   16 1HN3 S58 A 701      22.477  24.214   9.036  1.00 17.00     0.169 HD
HETATM   17 2HN3 S58 A 701      23.144  22.668   9.248  1.00 17.00     0.169 HD
ENDBRANCH  12  15
ENDBRANCH   9  12
ENDBRANCH   4   6
BRANCH   2  18
HETATM   18  C11 S58 A 701      22.663  21.655  16.241  1.00  5.71     0.018 A 
HETATM   19  C12 S58 A 701      22.218  22.761  15.473  1.00  5.31     0.002 A 
HETATM   20  C13 S58 A 701      20.851  22.913  15.178  1.00  2.00     0.007 A 
HETATM   21  C14 S58 A 701      19.933  21.972  15.638  1.00  2.00     0.035 A 
HETATM   22  C15 S58 A 701      20.361  20.896  16.422  1.00  2.25     0.007 A 
HETATM   23 BR1  S58 A 701      18.179  22.064  15.068  1.00  4.05    -0.049 Br
HETATM   24  C16 S58 A 701      21.733  20.733  16.726  1.00  2.30     0.002 A 
ENDBRANCH   2  18
BRANCH   3  25
HETATM   25  C4  S58 A 701      27.257  20.332  18.156  1.00  8.58     0.437 C 
HETATM   26  F1  S58 A 701      27.944  19.357  17.510  1.00  2.57    -0.164 F 
HETATM   27  F2  S58 A 701      26.734  19.890  19.310  1.00  8.03    -0.164 F 
HETATM   28  F3  S58 A 701      28.091  21.347  18.414  1.00 10.66    -0.164 F 
ENDBRANCH   3  25
TORSDOF 5
