REMARK  5 active torsions:
REMARK  status: ('A' for Active; 'I' for Inactive)
REMARK    1  A    between atoms: C2_22137  and  C11_22146 
REMARK    2  A    between atoms: C3_22138  and  C4_22139 
REMARK    3  A    between atoms: C5_22140  and  N1_22152 
REMARK    4  A    between atoms: C8_22143  and  S1_22161 
REMARK    5  A    between atoms: N3_22154  and  S1_22161 
ROOT
HETATM    1  C1  S58 A 701      26.622  21.811  15.790  1.00  9.00     0.044 A 
HETATM    2  C2  S58 A 701      25.395  22.108  15.278  1.00  8.39     0.084 A 
HETATM    3  C3  S58 A 701      26.420  21.593  17.251  1.00  9.72     0.174 A 
HETATM    4  N1  S58 A 701      24.469  22.068  16.295  1.00 11.18    -0.230 N 
HETATM    5  N2  S58 A 701      25.148  21.732  17.508  1.00 11.04    -0.161 NA
ENDROOT
BRANCH   4   6
HETATM    6  C5  S58 A 701      23.103  21.984  16.209  1.00 11.70     0.083 A 
HETATM    7  C6  S58 A 701      22.442  22.981  15.480  1.00 10.08     0.020 A 
HETATM    8  C7  S58 A 701      21.067  22.906  15.313  1.00 13.76     0.014 A 
HETATM    9  C8  S58 A 701      20.353  21.824  15.877  1.00 13.58     0.103 A 
HETATM   10  C9  S58 A 701      21.019  20.825  16.606  1.00 15.22     0.014 A 
HETATM   11  C10 S58 A 701      22.404  20.908  16.774  1.00 14.22     0.020 A 
BRANCH   9  12
HETATM   12  S1  S58 A 701      18.547  21.710  15.651  1.00 11.93     0.258 S 
HETATM   13  O1  S58 A 701      18.186  22.380  14.441  1.00  9.06    -0.201 OA
HETATM   14  O2  S58 A 701      17.919  22.356  16.769  1.00 10.85    -0.201 OA
BRANCH  12  15
HETATM   15  N3  S58 A 701      18.122  20.007  15.611  1.00  8.29    -0.324 N 
HETATM   16 1HN3 S58 A 701      17.941  19.572  14.754  1.00 17.00     0.169 HD
HETATM   17 2HN3 S58 A 701      18.069  19.492  16.445  1.00 17.00     0.169 HD
ENDBRANCH  12  15
ENDBRANCH   9  12
ENDBRANCH   4   6
BRANCH   2  18
HETATM   18  C11 S58 A 701      25.135  22.460  13.849  1.00  5.71     0.018 A 
HETATM   19  C12 S58 A 701      24.288  21.633  13.068  1.00  5.31     0.002 A 
HETATM   20  C13 S58 A 701      23.913  22.028  11.771  1.00  2.00     0.007 A 
HETATM   21  C14 S58 A 701      24.370  23.238  11.255  1.00  2.00     0.035 A 
HETATM   22  C15 S58 A 701      25.231  24.044  12.008  1.00  2.25     0.007 A 
HETATM   23 BR1  S58 A 701      23.703  23.846   9.645  1.00  4.05    -0.049 Br
HETATM   24  C16 S58 A 701      25.616  23.656  13.313  1.00  2.30     0.002 A 
ENDBRANCH   2  18
BRANCH   3  25
HETATM   25  C4  S58 A 701      27.450  21.333  18.309  1.00  8.58     0.437 C 
HETATM   26  F1  S58 A 701      28.366  22.333  18.301  1.00  2.57    -0.164 F 
HETATM   27  F2  S58 A 701      28.021  20.135  18.107  1.00  8.03    -0.164 F 
HETATM   28  F3  S58 A 701      26.830  21.326  19.495  1.00 10.66    -0.164 F 
ENDBRANCH   3  25
TORSDOF 5
