REMARK  5 active torsions:
REMARK  status: ('A' for Active; 'I' for Inactive)
REMARK    1  A    between atoms: C2_22137  and  C11_22146 
REMARK    2  A    between atoms: C3_22138  and  C4_22139 
REMARK    3  A    between atoms: C5_22140  and  N1_22152 
REMARK    4  A    between atoms: C8_22143  and  S1_22161 
REMARK    5  A    between atoms: N3_22154  and  S1_22161 
ROOT
HETATM    1  C1  S58 A 701      24.761  21.071  17.584  1.00  9.00     0.044 A 
HETATM    2  C2  S58 A 701      24.168  21.451  16.419  1.00  8.39     0.084 A 
HETATM    3  C3  S58 A 701      26.211  20.903  17.276  1.00  9.72     0.174 A 
HETATM    4  N1  S58 A 701      25.132  21.547  15.441  1.00 11.18    -0.230 N 
HETATM    5  N2  S58 A 701      26.394  21.209  16.021  1.00 11.04    -0.161 NA
ENDROOT
BRANCH   4   6
HETATM    6  C5  S58 A 701      25.065  22.187  14.230  1.00 11.70     0.083 A 
HETATM    7  C6  S58 A 701      24.154  21.688  13.290  1.00 10.08     0.020 A 
HETATM    8  C7  S58 A 701      24.005  22.336  12.073  1.00 13.76     0.014 A 
HETATM    9  C8  S58 A 701      24.772  23.492  11.799  1.00 13.58     0.103 A 
HETATM   10  C9  S58 A 701      25.684  23.990  12.745  1.00 15.22     0.014 A 
HETATM   11  C10 S58 A 701      25.831  23.330  13.967  1.00 14.22     0.020 A 
BRANCH   9  12
HETATM   12  S1  S58 A 701      24.574  24.360  10.207  1.00 11.93     0.258 S 
HETATM   13  O1  S58 A 701      25.775  24.217   9.447  1.00  9.06    -0.201 OA
HETATM   14  O2  S58 A 701      24.338  25.749  10.486  1.00 10.85    -0.201 OA
BRANCH  12  15
HETATM   15  N3  S58 A 701      23.189  23.658   9.388  1.00  8.29    -0.324 N 
HETATM   16 1HN3 S58 A 701      23.177  22.701   9.189  1.00 17.00     0.169 HD
HETATM   17 2HN3 S58 A 701      22.428  24.223   9.132  1.00 17.00     0.169 HD
ENDBRANCH  12  15
ENDBRANCH   9  12
ENDBRANCH   4   6
BRANCH   2  18
HETATM   18  C11 S58 A 701      22.700  21.675  16.248  1.00  5.71     0.018 A 
HETATM   19  C12 S58 A 701      22.246  22.788  15.496  1.00  5.31     0.002 A 
HETATM   20  C13 S58 A 701      20.878  22.931  15.198  1.00  2.00     0.007 A 
HETATM   21  C14 S58 A 701      19.969  21.973  15.640  1.00  2.00     0.035 A 
HETATM   22  C15 S58 A 701      20.406  20.889  16.409  1.00  2.25     0.007 A 
HETATM   23 BR1  S58 A 701      18.216  22.055  15.066  1.00  4.05    -0.049 Br
HETATM   24  C16 S58 A 701      21.779  20.735  16.715  1.00  2.30     0.002 A 
ENDBRANCH   2  18
BRANCH   3  25
HETATM   25  C4  S58 A 701      27.306  20.406  18.172  1.00  8.58     0.437 C 
HETATM   26  F1  S58 A 701      28.131  21.436  18.487  1.00  2.57    -0.164 F 
HETATM   27  F2  S58 A 701      27.968  19.405  17.571  1.00  8.03    -0.164 F 
HETATM   28  F3  S58 A 701      26.742  19.946  19.294  1.00 10.66    -0.164 F 
ENDBRANCH   3  25
TORSDOF 5
