REMARK  5 active torsions:
REMARK  status: ('A' for Active; 'I' for Inactive)
REMARK    1  A    between atoms: C2_22137  and  C11_22146 
REMARK    2  A    between atoms: C3_22138  and  C4_22139 
REMARK    3  A    between atoms: C5_22140  and  N1_22152 
REMARK    4  A    between atoms: C8_22143  and  S1_22161 
REMARK    5  A    between atoms: N3_22154  and  S1_22161 
ROOT
HETATM    1  C1  S58 A 701      27.557  21.734  16.858  1.00  9.00     0.044 A 
HETATM    2  C2  S58 A 701      26.322  22.029  16.366  1.00  8.39     0.084 A 
HETATM    3  C3  S58 A 701      27.334  21.149  18.212  1.00  9.72     0.174 A 
HETATM    4  N1  S58 A 701      25.374  21.657  17.292  1.00 11.18    -0.230 N 
HETATM    5  N2  S58 A 701      26.047  21.101  18.424  1.00 11.04    -0.161 NA
ENDROOT
BRANCH   4   6
HETATM    6  C5  S58 A 701      24.028  21.468  17.113  1.00 11.70     0.083 A 
HETATM    7  C6  S58 A 701      23.416  20.455  17.862  1.00 10.08     0.020 A 
HETATM    8  C7  S58 A 701      22.046  20.264  17.761  1.00 13.76     0.014 A 
HETATM    9  C8  S58 A 701      21.286  21.096  16.907  1.00 13.58     0.103 A 
HETATM   10  C9  S58 A 701      21.903  22.112  16.158  1.00 15.22     0.014 A 
HETATM   11  C10 S58 A 701      23.284  22.296  16.261  1.00 14.22     0.020 A 
BRANCH   9  12
HETATM   12  S1  S58 A 701      19.482  20.862  16.778  1.00 11.93     0.258 S 
HETATM   13  O1  S58 A 701      19.044  21.316  15.496  1.00  9.06    -0.201 OA
HETATM   14  O2  S58 A 701      18.859  21.645  17.808  1.00 10.85    -0.201 OA
BRANCH  12  15
HETATM   15  N3  S58 A 701      19.148  19.156  17.021  1.00  8.29    -0.324 N 
HETATM   16 1HN3 S58 A 701      19.629  18.488  16.494  1.00 17.00     0.169 HD
HETATM   17 2HN3 S58 A 701      18.483  18.873  17.685  1.00 17.00     0.169 HD
ENDBRANCH  12  15
ENDBRANCH   9  12
ENDBRANCH   4   6
BRANCH   2  18
HETATM   18  C11 S58 A 701      26.070  22.692  15.050  1.00  5.71     0.018 A 
HETATM   19  C12 S58 A 701      26.358  24.072  14.896  1.00  5.31     0.002 A 
HETATM   20  C13 S58 A 701      26.270  24.676  13.628  1.00  2.00     0.007 A 
HETATM   21  C14 S58 A 701      25.904  23.915  12.521  1.00  2.00     0.035 A 
HETATM   22  C15 S58 A 701      25.589  22.560  12.671  1.00  2.25     0.007 A 
HETATM   23 BR1  S58 A 701      25.999  24.663  10.836  1.00  4.05    -0.049 Br
HETATM   24  C16 S58 A 701      25.673  21.942  13.941  1.00  2.30     0.002 A 
ENDBRANCH   2  18
BRANCH   3  25
HETATM   25  C4  S58 A 701      28.353  20.737  19.232  1.00  8.58     0.437 C 
HETATM   26  F1  S58 A 701      28.709  21.816  19.973  1.00  2.57    -0.164 F 
HETATM   27  F2  S58 A 701      29.412  20.182  18.622  1.00  8.03    -0.164 F 
HETATM   28  F3  S58 A 701      27.787  19.830  20.036  1.00 10.66    -0.164 F 
ENDBRANCH   3  25
TORSDOF 5
