REMARK  9 active torsions:
REMARK  status: ('A' for Active; 'I' for Inactive)
REMARK    1  A    between atoms: C3_3  and  O3_4 
REMARK    2  A    between atoms: C7_9  and  C8_10 
REMARK    3  A    between atoms: C11_13  and  O11_14 
REMARK    4  A    between atoms: C15_19  and  C16_20 
REMARK    5  A    between atoms: C16_20  and  C17_22 
REMARK    6  A    between atoms: C20_25  and  O23_28 
REMARK    7  A    between atoms: O23_28  and  C24_29 
REMARK    8  A    between atoms: C24_29  and  C25_30 
REMARK    9  A    between atoms: C25_30  and  N26_31 
ROOT
HETATM    1  C1  RAL A 600      28.762  -2.382  26.453  1.00 31.33     0.016 A 
HETATM    2  C2  RAL A 600      27.394  -2.320  26.529  1.00 30.47     0.037 A 
HETATM    3  C3  RAL A 600      26.729  -1.178  26.879  1.00 31.66     0.067 A 
HETATM    4  C4  RAL A 600      27.461  -0.017  27.155  1.00 33.99     0.056 A 
HETATM    5  C5  RAL A 600      28.828  -0.074  27.045  1.00 33.49     0.019 A 
HETATM    6  S6  RAL A 600      29.957   1.094  27.348  1.00 33.96    -0.088 SA
HETATM    7  C7  RAL A 600      31.336   0.198  26.967  1.00 34.48     0.031 A 
HETATM    8  C14 RAL A 600      29.496  -1.282  26.694  1.00 31.87    -0.003 A 
HETATM    9  C15 RAL A 600      30.942  -1.126  26.678  1.00 33.10     0.044 A 
ENDROOT
BRANCH   9  10
HETATM   10  C16 RAL A 600      31.797  -2.175  26.399  1.00 36.94     0.194 C 
HETATM   11  O16 RAL A 600      32.337  -2.782  27.333  1.00 40.67    -0.287 OA
BRANCH  10  12
HETATM   12  C17 RAL A 600      32.113  -2.600  25.031  1.00 36.96     0.015 A 
HETATM   13  C18 RAL A 600      31.555  -1.954  23.947  1.00 34.73     0.018 A 
HETATM   14  C19 RAL A 600      31.819  -2.338  22.647  1.00 34.67     0.037 A 
HETATM   15  C20 RAL A 600      32.655  -3.433  22.429  1.00 37.20     0.068 A 
HETATM   16  C21 RAL A 600      33.227  -4.083  23.508  1.00 40.93     0.037 A 
HETATM   17  C22 RAL A 600      32.965  -3.659  24.800  1.00 39.84     0.018 A 
BRANCH  15  18
HETATM   18  O23 RAL A 600      33.046  -3.995  21.250  1.00 36.45    -0.349 OA
BRANCH  18  19
HETATM   19  C24 RAL A 600      33.341  -3.102  20.188  1.00 38.03     0.206 C 
BRANCH  19  20
HETATM   20  C25 RAL A 600      34.552  -2.271  20.523  1.00 43.08     0.299 C 
BRANCH  20  21
HETATM   21  N26 RAL A 600      35.369  -1.451  19.650  1.00 46.61     0.090 N 
HETATM   22  C27 RAL A 600      36.791  -1.767  19.894  1.00 47.65     0.272 C 
HETATM   23  C28 RAL A 600      37.759  -1.068  18.918  1.00 48.95     0.030 C 
HETATM   24  C29 RAL A 600      37.593   0.444  19.136  1.00 50.06     0.003 C 
HETATM   25  C30 RAL A 600      36.126   0.728  18.687  1.00 50.91     0.030 C 
HETATM   26  C31 RAL A 600      35.204   0.015  19.691  1.00 50.67     0.272 C 
ENDBRANCH  20  21
ENDBRANCH  19  20
ENDBRANCH  18  19
ENDBRANCH  15  18
ENDBRANCH  10  12
ENDBRANCH   9  10
BRANCH   7  27
HETATM   27  C8  RAL A 600      32.726   0.709  27.133  1.00 35.62    -0.018 A 
HETATM   28  C9  RAL A 600      33.203   0.708  28.430  1.00 35.20     0.015 A 
HETATM   29  C10 RAL A 600      34.517   1.088  28.647  1.00 38.32     0.037 A 
HETATM   30  C11 RAL A 600      35.330   1.498  27.608  1.00 39.44     0.065 A 
HETATM   31  C12 RAL A 600      34.866   1.455  26.310  1.00 36.17     0.037 A 
HETATM   32  C13 RAL A 600      33.552   1.056  26.100  1.00 34.51     0.015 A 
BRANCH  30  33
HETATM   33  O11 RAL A 600      36.641   1.859  27.924  1.00 46.17    -0.361 OA
ATOM     34  H11 RAL A 600      36.789   2.279  28.763  1.00  0.00     0.217 HD
ENDBRANCH  30  33
ENDBRANCH   7  27
BRANCH   3  35
HETATM   35  O3  RAL A 600      25.358  -1.240  26.889  1.00 32.81    -0.361 OA
ATOM     36  H3  RAL A 600      24.958  -1.942  26.390  1.00  0.00     0.217 HD
ENDBRANCH   3  35
TORSDOF 9
