REMARK  9 active torsions:
REMARK  status: ('A' for Active; 'I' for Inactive)
REMARK    1  A    between atoms: C3_3  and  O3_4 
REMARK    2  A    between atoms: C7_9  and  C8_10 
REMARK    3  A    between atoms: C11_13  and  O11_14 
REMARK    4  A    between atoms: C15_19  and  C16_20 
REMARK    5  A    between atoms: C16_20  and  C17_22 
REMARK    6  A    between atoms: C20_25  and  O23_28 
REMARK    7  A    between atoms: O23_28  and  C24_29 
REMARK    8  A    between atoms: C24_29  and  C25_30 
REMARK    9  A    between atoms: C25_30  and  N26_31 
ROOT
HETATM    1  C1  RAL A 600      33.938   0.197  26.180  1.00 31.33     0.016 A 
HETATM    2  C2  RAL A 600      35.107   0.718  26.671  1.00 30.47     0.037 A 
HETATM    3  C3  RAL A 600      35.300   0.961  28.003  1.00 31.66     0.067 A 
HETATM    4  C4  RAL A 600      34.280   0.652  28.910  1.00 33.99     0.056 A 
HETATM    5  C5  RAL A 600      33.124   0.098  28.417  1.00 33.49     0.019 A 
HETATM    6  S6  RAL A 600      31.738  -0.324  29.214  1.00 33.96    -0.088 SA
HETATM    7  C7  RAL A 600      30.870  -0.905  27.887  1.00 34.48     0.031 A 
HETATM    8  C14 RAL A 600      32.943  -0.128  27.023  1.00 31.87    -0.003 A 
HETATM    9  C15 RAL A 600      31.632  -0.680  26.721  1.00 33.10     0.044 A 
ENDROOT
BRANCH   9  10
HETATM   10  C16 RAL A 600      31.220  -0.949  25.430  1.00 36.94     0.194 C 
HETATM   11  O16 RAL A 600      30.225  -0.369  24.978  1.00 40.67    -0.287 OA
BRANCH  10  12
HETATM   12  C17 RAL A 600      31.906  -1.912  24.561  1.00 36.96     0.015 A 
HETATM   13  C18 RAL A 600      32.743  -2.870  25.097  1.00 34.73     0.018 A 
HETATM   14  C19 RAL A 600      33.416  -3.782  24.306  1.00 34.67     0.037 A 
HETATM   15  C20 RAL A 600      33.263  -3.709  22.922  1.00 37.20     0.068 A 
HETATM   16  C21 RAL A 600      32.420  -2.758  22.375  1.00 40.93     0.037 A 
HETATM   17  C22 RAL A 600      31.737  -1.873  23.194  1.00 39.84     0.018 A 
BRANCH  15  18
HETATM   18  O23 RAL A 600      33.827  -4.484  21.953  1.00 36.45    -0.349 OA
BRANCH  18  19
HETATM   19  C24 RAL A 600      34.905  -3.910  21.229  1.00 38.03     0.206 C 
BRANCH  19  20
HETATM   20  C25 RAL A 600      34.463  -3.533  19.841  1.00 43.08     0.299 C 
BRANCH  20  21
HETATM   21  N26 RAL A 600      33.160  -3.088  19.385  1.00 46.61     0.090 N 
HETATM   22  C27 RAL A 600      32.176  -4.161  19.636  1.00 47.65     0.272 C 
HETATM   23  C28 RAL A 600      30.720  -3.753  19.333  1.00 48.95     0.030 C 
HETATM   24  C29 RAL A 600      30.655  -3.428  17.832  1.00 50.06     0.003 C 
HETATM   25  C30 RAL A 600      31.575  -2.177  17.680  1.00 50.91     0.030 C 
HETATM   26  C31 RAL A 600      33.011  -2.638  17.987  1.00 50.67     0.272 C 
ENDBRANCH  20  21
ENDBRANCH  19  20
ENDBRANCH  18  19
ENDBRANCH  15  18
ENDBRANCH  10  12
ENDBRANCH   9  10
BRANCH   7  27
HETATM   27  C8  RAL A 600      29.455  -1.367  27.965  1.00 35.62    -0.018 A 
HETATM   28  C9  RAL A 600      28.505  -0.364  27.931  1.00 35.20     0.015 A 
HETATM   29  C10 RAL A 600      27.168  -0.726  27.911  1.00 38.32     0.037 A 
HETATM   30  C11 RAL A 600      26.778  -2.050  27.964  1.00 39.44     0.065 A 
HETATM   31  C12 RAL A 600      27.728  -3.051  27.951  1.00 36.17     0.037 A 
HETATM   32  C13 RAL A 600      29.067  -2.678  27.954  1.00 34.51     0.015 A 
BRANCH  30  33
HETATM   33  O11 RAL A 600      25.409  -2.318  27.935  1.00 46.17    -0.361 OA
ATOM     34  H11 RAL A 600      25.049  -2.668  27.129  1.00  0.00     0.217 HD
ENDBRANCH  30  33
ENDBRANCH   7  27
BRANCH   3  35
HETATM   35  O3  RAL A 600      36.526   1.456  28.369  1.00 32.81    -0.361 OA
ATOM     36  H3  RAL A 600      36.529   2.171  28.994  1.00  0.00     0.217 HD
ENDBRANCH   3  35
TORSDOF 9
