REMARK  9 active torsions:
REMARK  status: ('A' for Active; 'I' for Inactive)
REMARK    1  A    between atoms: C3_3  and  O3_4 
REMARK    2  A    between atoms: C7_9  and  C8_10 
REMARK    3  A    between atoms: C11_13  and  O11_14 
REMARK    4  A    between atoms: C15_19  and  C16_20 
REMARK    5  A    between atoms: C16_20  and  C17_22 
REMARK    6  A    between atoms: C20_25  and  O23_28 
REMARK    7  A    between atoms: O23_28  and  C24_29 
REMARK    8  A    between atoms: C24_29  and  C25_30 
REMARK    9  A    between atoms: C25_30  and  N26_31 
ROOT
HETATM    1  C1  RAL A 600      33.754  -0.562  26.672  1.00 31.33     0.016 A 
HETATM    2  C2  RAL A 600      34.892  -0.348  27.407  1.00 30.47     0.037 A 
HETATM    3  C3  RAL A 600      34.860  -0.072  28.745  1.00 31.66     0.067 A 
HETATM    4  C4  RAL A 600      33.627  -0.022  29.405  1.00 33.99     0.056 A 
HETATM    5  C5  RAL A 600      32.492  -0.270  28.673  1.00 33.49     0.019 A 
HETATM    6  S6  RAL A 600      30.908  -0.236  29.144  1.00 33.96    -0.088 SA
HETATM    7  C7  RAL A 600      30.211  -0.650  27.663  1.00 34.48     0.031 A 
HETATM    8  C14 RAL A 600      32.553  -0.539  27.276  1.00 31.87    -0.003 A 
HETATM    9  C15 RAL A 600      31.234  -0.729  26.695  1.00 33.10     0.044 A 
ENDROOT
BRANCH   9  10
HETATM   10  C16 RAL A 600      31.045  -0.967  25.347  1.00 36.94     0.194 C 
HETATM   11  O16 RAL A 600      30.107  -0.413  24.759  1.00 40.67    -0.287 OA
BRANCH  10  12
HETATM   12  C17 RAL A 600      31.904  -1.868  24.571  1.00 36.96     0.015 A 
HETATM   13  C18 RAL A 600      32.547  -2.926  25.181  1.00 34.73     0.018 A 
HETATM   14  C19 RAL A 600      33.375  -3.784  24.483  1.00 34.67     0.037 A 
HETATM   15  C20 RAL A 600      33.586  -3.552  23.125  1.00 37.20     0.068 A 
HETATM   16  C21 RAL A 600      32.941  -2.499  22.501  1.00 40.93     0.037 A 
HETATM   17  C22 RAL A 600      32.095  -1.671  23.219  1.00 39.84     0.018 A 
BRANCH  15  18
HETATM   18  O23 RAL A 600      34.360  -4.248  22.244  1.00 36.45    -0.349 OA
BRANCH  18  19
HETATM   19  C24 RAL A 600      34.179  -3.951  20.868  1.00 38.03     0.206 C 
BRANCH  19  20
HETATM   20  C25 RAL A 600      33.055  -4.775  20.298  1.00 43.08     0.299 C 
BRANCH  20  21
HETATM   21  N26 RAL A 600      31.946  -4.356  19.463  1.00 46.61     0.090 N 
HETATM   22  C27 RAL A 600      32.450  -3.425  18.433  1.00 47.65     0.272 C 
HETATM   23  C28 RAL A 600      31.391  -3.024  17.386  1.00 48.95     0.030 C 
HETATM   24  C29 RAL A 600      30.274  -2.290  18.145  1.00 50.06     0.003 C 
HETATM   25  C30 RAL A 600      29.674  -3.385  19.079  1.00 50.91     0.030 C 
HETATM   26  C31 RAL A 600      30.764  -3.746  20.104  1.00 50.67     0.272 C 
ENDBRANCH  20  21
ENDBRANCH  19  20
ENDBRANCH  18  19
ENDBRANCH  15  18
ENDBRANCH  10  12
ENDBRANCH   9  10
BRANCH   7  27
HETATM   27  C8  RAL A 600      28.740  -0.698  27.428  1.00 35.62    -0.018 A 
HETATM   28  C9  RAL A 600      28.257  -1.905  26.962  1.00 35.20     0.015 A 
HETATM   29  C10 RAL A 600      26.888  -2.048  26.804  1.00 38.32     0.037 A 
HETATM   30  C11 RAL A 600      26.019  -1.005  27.062  1.00 39.44     0.065 A 
HETATM   31  C12 RAL A 600      26.500   0.184  27.570  1.00 36.17     0.037 A 
HETATM   32  C13 RAL A 600      27.872   0.312  27.742  1.00 34.51     0.015 A 
BRANCH  30  33
HETATM   33  O11 RAL A 600      24.656  -1.245  26.877  1.00 46.17    -0.361 OA
ATOM     34  H11 RAL A 600      24.411  -1.898  26.232  1.00  0.00     0.217 HD
ENDBRANCH  30  33
ENDBRANCH   7  27
BRANCH   3  35
HETATM   35  O3  RAL A 600      36.071   0.092  29.371  1.00 32.81    -0.361 OA
ATOM     36  H3  RAL A 600      36.390  -0.641  29.884  1.00  0.00     0.217 HD
ENDBRANCH   3  35
TORSDOF 9
