REMARK  9 active torsions:
REMARK  status: ('A' for Active; 'I' for Inactive)
REMARK    1  A    between atoms: C3_3  and  O3_4 
REMARK    2  A    between atoms: C7_9  and  C8_10 
REMARK    3  A    between atoms: C11_13  and  O11_14 
REMARK    4  A    between atoms: C15_19  and  C16_20 
REMARK    5  A    between atoms: C16_20  and  C17_22 
REMARK    6  A    between atoms: C20_25  and  O23_28 
REMARK    7  A    between atoms: O23_28  and  C24_29 
REMARK    8  A    between atoms: C24_29  and  C25_30 
REMARK    9  A    between atoms: C25_30  and  N26_31 
ROOT
HETATM    1  C1  RAL A 600      28.387  -2.486  26.103  1.00 31.33     0.016 A 
HETATM    2  C2  RAL A 600      27.026  -2.344  26.185  1.00 30.47     0.037 A 
HETATM    3  C3  RAL A 600      26.432  -1.174  26.568  1.00 31.66     0.067 A 
HETATM    4  C4  RAL A 600      27.232  -0.068  26.874  1.00 33.99     0.056 A 
HETATM    5  C5  RAL A 600      28.594  -0.204  26.757  1.00 33.49     0.019 A 
HETATM    6  S6  RAL A 600      29.791   0.885  27.089  1.00 33.96    -0.088 SA
HETATM    7  C7  RAL A 600      31.112  -0.082  26.679  1.00 34.48     0.031 A 
HETATM    8  C14 RAL A 600      29.186  -1.440  26.372  1.00 31.87    -0.003 A 
HETATM    9  C15 RAL A 600      30.639  -1.371  26.355  1.00 33.10     0.044 A 
ENDROOT
BRANCH   9  10
HETATM   10  C16 RAL A 600      31.429  -2.461  26.045  1.00 36.94     0.194 C 
HETATM   11  O16 RAL A 600      31.571  -3.364  26.879  1.00 40.67    -0.287 OA
BRANCH  10  12
HETATM   12  C17 RAL A 600      32.129  -2.596  24.763  1.00 36.96     0.015 A 
HETATM   13  C18 RAL A 600      31.783  -1.805  23.686  1.00 34.73     0.018 A 
HETATM   14  C19 RAL A 600      32.412  -1.916  22.461  1.00 34.67     0.037 A 
HETATM   15  C20 RAL A 600      33.408  -2.879  22.305  1.00 37.20     0.068 A 
HETATM   16  C21 RAL A 600      33.769  -3.672  23.380  1.00 40.93     0.037 A 
HETATM   17  C22 RAL A 600      33.140  -3.521  24.604  1.00 39.84     0.018 A 
BRANCH  15  18
HETATM   18  O23 RAL A 600      34.150  -3.178  21.201  1.00 36.45    -0.349 OA
BRANCH  18  19
HETATM   19  C24 RAL A 600      33.933  -4.453  20.615  1.00 38.03     0.206 C 
BRANCH  19  20
HETATM   20  C25 RAL A 600      32.904  -4.357  19.520  1.00 43.08     0.299 C 
BRANCH  20  21
HETATM   21  N26 RAL A 600      31.744  -3.492  19.428  1.00 46.61     0.090 N 
HETATM   22  C27 RAL A 600      30.721  -3.965  20.382  1.00 47.65     0.272 C 
HETATM   23  C28 RAL A 600      29.494  -3.037  20.489  1.00 48.95     0.030 C 
HETATM   24  C29 RAL A 600      28.834  -3.013  19.101  1.00 50.06     0.003 C 
HETATM   25  C30 RAL A 600      29.905  -2.337  18.190  1.00 50.91     0.030 C 
HETATM   26  C31 RAL A 600      31.101  -3.301  18.113  1.00 50.67     0.272 C 
ENDBRANCH  20  21
ENDBRANCH  19  20
ENDBRANCH  18  19
ENDBRANCH  15  18
ENDBRANCH  10  12
ENDBRANCH   9  10
BRANCH   7  27
HETATM   27  C8  RAL A 600      32.531   0.339  26.855  1.00 35.62    -0.018 A 
HETATM   28  C9  RAL A 600      33.111   0.934  25.751  1.00 35.20     0.015 A 
HETATM   29  C10 RAL A 600      34.399   1.429  25.872  1.00 38.32     0.037 A 
HETATM   30  C11 RAL A 600      35.113   1.302  27.047  1.00 39.44     0.065 A 
HETATM   31  C12 RAL A 600      34.517   0.749  28.161  1.00 36.17     0.037 A 
HETATM   32  C13 RAL A 600      33.218   0.271  28.036  1.00 34.51     0.015 A 
BRANCH  30  33
HETATM   33  O11 RAL A 600      36.403   1.835  27.075  1.00 46.17    -0.361 OA
ATOM     34  H11 RAL A 600      36.798   2.066  26.242  1.00  0.00     0.217 HD
ENDBRANCH  30  33
ENDBRANCH   7  27
BRANCH   3  35
HETATM   35  O3  RAL A 600      25.059  -1.153  26.580  1.00 32.81    -0.361 OA
ATOM     36  H3  RAL A 600      24.617  -1.906  26.206  1.00  0.00     0.217 HD
ENDBRANCH   3  35
TORSDOF 9
