REMARK  9 active torsions:
REMARK  status: ('A' for Active; 'I' for Inactive)
REMARK    1  A    between atoms: C3_3  and  O3_4 
REMARK    2  A    between atoms: C7_9  and  C8_10 
REMARK    3  A    between atoms: C11_13  and  O11_14 
REMARK    4  A    between atoms: C15_19  and  C16_20 
REMARK    5  A    between atoms: C16_20  and  C17_22 
REMARK    6  A    between atoms: C20_25  and  O23_28 
REMARK    7  A    between atoms: O23_28  and  C24_29 
REMARK    8  A    between atoms: C24_29  and  C25_30 
REMARK    9  A    between atoms: C25_30  and  N26_31 
ROOT
HETATM    1  C1  RAL A 600      33.742  -0.545  26.636  1.00 31.33     0.016 A 
HETATM    2  C2  RAL A 600      34.893  -0.375  27.361  1.00 30.47     0.037 A 
HETATM    3  C3  RAL A 600      34.885  -0.168  28.713  1.00 31.66     0.067 A 
HETATM    4  C4  RAL A 600      33.663  -0.143  29.395  1.00 33.99     0.056 A 
HETATM    5  C5  RAL A 600      32.515  -0.348  28.670  1.00 33.49     0.019 A 
HETATM    6  S6  RAL A 600      30.940  -0.328  29.169  1.00 33.96    -0.088 SA
HETATM    7  C7  RAL A 600      30.215  -0.662  27.681  1.00 34.48     0.031 A 
HETATM    8  C14 RAL A 600      32.552  -0.545  27.260  1.00 31.87    -0.003 A 
HETATM    9  C15 RAL A 600      31.221  -0.698  26.692  1.00 33.10     0.044 A 
ENDROOT
BRANCH   9  10
HETATM   10  C16 RAL A 600      31.009  -0.865  25.337  1.00 36.94     0.194 C 
HETATM   11  O16 RAL A 600      30.110  -0.222  24.780  1.00 40.67    -0.287 OA
BRANCH  10  12
HETATM   12  C17 RAL A 600      31.798  -1.792  24.518  1.00 36.96     0.015 A 
HETATM   13  C18 RAL A 600      32.151  -1.463  23.225  1.00 34.73     0.018 A 
HETATM   14  C19 RAL A 600      32.880  -2.319  22.422  1.00 34.67     0.037 A 
HETATM   15  C20 RAL A 600      33.243  -3.565  22.929  1.00 37.20     0.068 A 
HETATM   16  C21 RAL A 600      32.901  -3.903  24.227  1.00 40.93     0.037 A 
HETATM   17  C22 RAL A 600      32.193  -3.015  25.018  1.00 39.84     0.018 A 
BRANCH  15  18
HETATM   18  O23 RAL A 600      33.943  -4.568  22.327  1.00 36.45    -0.349 OA
BRANCH  18  19
HETATM   19  C24 RAL A 600      34.303  -4.364  20.969  1.00 38.03     0.206 C 
BRANCH  19  20
HETATM   20  C25 RAL A 600      33.331  -5.065  20.059  1.00 43.08     0.299 C 
BRANCH  20  21
HETATM   21  N26 RAL A 600      32.153  -4.538  19.397  1.00 46.61     0.090 N 
HETATM   22  C27 RAL A 600      32.576  -3.523  18.410  1.00 47.65     0.272 C 
HETATM   23  C28 RAL A 600      31.425  -2.993  17.531  1.00 48.95     0.030 C 
HETATM   24  C29 RAL A 600      30.424  -2.309  18.476  1.00 50.06     0.003 C 
HETATM   25  C30 RAL A 600      29.890  -3.476  19.363  1.00 50.91     0.030 C 
HETATM   26  C31 RAL A 600      31.071  -3.964  20.221  1.00 50.67     0.272 C 
ENDBRANCH  20  21
ENDBRANCH  19  20
ENDBRANCH  18  19
ENDBRANCH  15  18
ENDBRANCH  10  12
ENDBRANCH   9  10
BRANCH   7  27
HETATM   27  C8  RAL A 600      28.740  -0.689  27.468  1.00 35.62    -0.018 A 
HETATM   28  C9  RAL A 600      28.277  -1.728  26.684  1.00 35.20     0.015 A 
HETATM   29  C10 RAL A 600      26.909  -1.865  26.516  1.00 38.32     0.037 A 
HETATM   30  C11 RAL A 600      26.020  -0.969  27.078  1.00 39.44     0.065 A 
HETATM   31  C12 RAL A 600      26.482   0.040  27.897  1.00 36.17     0.037 A 
HETATM   32  C13 RAL A 600      27.855   0.159  28.073  1.00 34.51     0.015 A 
BRANCH  30  33
HETATM   33  O11 RAL A 600      24.660  -1.191  26.857  1.00 46.17    -0.361 OA
ATOM     34  H11 RAL A 600      24.422  -1.911  26.284  1.00  0.00     0.217 HD
ENDBRANCH  30  33
ENDBRANCH   7  27
BRANCH   3  35
HETATM   35  O3  RAL A 600      36.107  -0.042  29.325  1.00 32.81    -0.361 OA
ATOM     36  H3  RAL A 600      36.382  -0.762  29.882  1.00  0.00     0.217 HD
ENDBRANCH   3  35
TORSDOF 9
