REMARK  9 active torsions:
REMARK  status: ('A' for Active; 'I' for Inactive)
REMARK    1  A    between atoms: C3_3  and  O3_4 
REMARK    2  A    between atoms: C7_9  and  C8_10 
REMARK    3  A    between atoms: C11_13  and  O11_14 
REMARK    4  A    between atoms: C15_19  and  C16_20 
REMARK    5  A    between atoms: C16_20  and  C17_22 
REMARK    6  A    between atoms: C20_25  and  O23_28 
REMARK    7  A    between atoms: O23_28  and  C24_29 
REMARK    8  A    between atoms: C24_29  and  C25_30 
REMARK    9  A    between atoms: C25_30  and  N26_31 
ROOT
HETATM    1  C1  RAL A 600      29.386  -2.982  26.895  1.00 31.33     0.016 A 
HETATM    2  C2  RAL A 600      28.018  -3.034  26.970  1.00 30.47     0.037 A 
HETATM    3  C3  RAL A 600      27.255  -1.931  27.233  1.00 31.66     0.067 A 
HETATM    4  C4  RAL A 600      27.881  -0.693  27.417  1.00 33.99     0.056 A 
HETATM    5  C5  RAL A 600      29.249  -0.639  27.307  1.00 33.49     0.019 A 
HETATM    6  S6  RAL A 600      30.270   0.643  27.517  1.00 33.96    -0.088 SA
HETATM    7  C7  RAL A 600      31.723  -0.157  27.201  1.00 34.48     0.031 A 
HETATM    8  C14 RAL A 600      30.020  -1.808  27.048  1.00 31.87    -0.003 A 
HETATM    9  C15 RAL A 600      31.447  -1.528  27.016  1.00 33.10     0.044 A 
ENDROOT
BRANCH   9  10
HETATM   10  C16 RAL A 600      32.392  -2.516  26.816  1.00 36.94     0.194 C 
HETATM   11  O16 RAL A 600      33.003  -2.976  27.788  1.00 40.67    -0.287 OA
BRANCH  10  12
HETATM   12  C17 RAL A 600      32.720  -3.044  25.487  1.00 36.96     0.015 A 
HETATM   13  C18 RAL A 600      34.030  -3.307  25.138  1.00 34.73     0.018 A 
HETATM   14  C19 RAL A 600      34.374  -3.790  23.891  1.00 34.67     0.037 A 
HETATM   15  C20 RAL A 600      33.367  -3.988  22.948  1.00 37.20     0.068 A 
HETATM   16  C21 RAL A 600      32.050  -3.735  23.289  1.00 40.93     0.037 A 
HETATM   17  C22 RAL A 600      31.730  -3.277  24.556  1.00 39.84     0.018 A 
BRANCH  15  18
HETATM   18  O23 RAL A 600      33.466  -4.439  21.665  1.00 36.45    -0.349 OA
BRANCH  18  19
HETATM   19  C24 RAL A 600      34.336  -3.719  20.804  1.00 38.03     0.206 C 
BRANCH  19  20
HETATM   20  C25 RAL A 600      33.549  -3.036  19.718  1.00 43.08     0.299 C 
BRANCH  20  21
HETATM   21  N26 RAL A 600      32.211  -3.325  19.237  1.00 46.61     0.090 N 
HETATM   22  C27 RAL A 600      31.827  -2.294  18.251  1.00 47.65     0.272 C 
HETATM   23  C28 RAL A 600      30.482  -2.574  17.552  1.00 48.95     0.030 C 
HETATM   24  C29 RAL A 600      29.403  -2.571  18.647  1.00 50.06     0.003 C 
HETATM   25  C30 RAL A 600      29.775  -3.794  19.542  1.00 50.91     0.030 C 
HETATM   26  C31 RAL A 600      31.117  -3.463  20.217  1.00 50.67     0.272 C 
ENDBRANCH  20  21
ENDBRANCH  19  20
ENDBRANCH  18  19
ENDBRANCH  15  18
ENDBRANCH  10  12
ENDBRANCH   9  10
BRANCH   7  27
HETATM   27  C8  RAL A 600      33.063   0.485  27.324  1.00 35.62    -0.018 A 
HETATM   28  C9  RAL A 600      33.560   0.570  28.610  1.00 35.20     0.015 A 
HETATM   29  C10 RAL A 600      34.837   1.076  28.788  1.00 38.32     0.037 A 
HETATM   30  C11 RAL A 600      35.591   1.525  27.721  1.00 39.44     0.065 A 
HETATM   31  C12 RAL A 600      35.111   1.397  26.435  1.00 36.17     0.037 A 
HETATM   32  C13 RAL A 600      33.835   0.873  26.264  1.00 34.51     0.015 A 
BRANCH  30  33
HETATM   33  O11 RAL A 600      36.868   2.014  27.999  1.00 46.17    -0.361 OA
ATOM     34  H11 RAL A 600      36.966   2.573  28.762  1.00  0.00     0.217 HD
ENDBRANCH  30  33
ENDBRANCH   7  27
BRANCH   3  35
HETATM   35  O3  RAL A 600      25.894  -2.111  27.252  1.00 32.81    -0.361 OA
ATOM     36  H3  RAL A 600      25.524  -2.648  26.561  1.00  0.00     0.217 HD
ENDBRANCH   3  35
TORSDOF 9
