REMARK  9 active torsions:
REMARK  status: ('A' for Active; 'I' for Inactive)
REMARK    1  A    between atoms: C3_3  and  O3_4 
REMARK    2  A    between atoms: C7_9  and  C8_10 
REMARK    3  A    between atoms: C11_13  and  O11_14 
REMARK    4  A    between atoms: C15_19  and  C16_20 
REMARK    5  A    between atoms: C16_20  and  C17_22 
REMARK    6  A    between atoms: C20_25  and  O23_28 
REMARK    7  A    between atoms: O23_28  and  C24_29 
REMARK    8  A    between atoms: C24_29  and  C25_30 
REMARK    9  A    between atoms: C25_30  and  N26_31 
ROOT
HETATM    1  C1  RAL A 600      28.410  -2.415  26.244  1.00 31.33     0.016 A 
HETATM    2  C2  RAL A 600      27.045  -2.294  26.293  1.00 30.47     0.037 A 
HETATM    3  C3  RAL A 600      26.423  -1.126  26.636  1.00 31.66     0.067 A 
HETATM    4  C4  RAL A 600      27.198   0.001  26.931  1.00 33.99     0.056 A 
HETATM    5  C5  RAL A 600      28.564  -0.114  26.847  1.00 33.49     0.019 A 
HETATM    6  S6  RAL A 600      29.735   1.004  27.178  1.00 33.96    -0.088 SA
HETATM    7  C7  RAL A 600      31.081   0.050  26.819  1.00 34.48     0.031 A 
HETATM    8  C14 RAL A 600      29.185  -1.349  26.504  1.00 31.87    -0.003 A 
HETATM    9  C15 RAL A 600      30.637  -1.255  26.517  1.00 33.10     0.044 A 
ENDROOT
BRANCH   9  10
HETATM   10  C16 RAL A 600      31.452  -2.338  26.249  1.00 36.94     0.194 C 
HETATM   11  O16 RAL A 600      31.862  -3.034  27.187  1.00 40.67    -0.287 OA
BRANCH  10  12
HETATM   12  C17 RAL A 600      31.872  -2.700  24.891  1.00 36.96     0.015 A 
HETATM   13  C18 RAL A 600      31.449  -1.963  23.804  1.00 34.73     0.018 A 
HETATM   14  C19 RAL A 600      31.815  -2.285  22.511  1.00 34.67     0.037 A 
HETATM   15  C20 RAL A 600      32.613  -3.408  22.302  1.00 37.20     0.068 A 
HETATM   16  C21 RAL A 600      33.050  -4.150  23.385  1.00 40.93     0.037 A 
HETATM   17  C22 RAL A 600      32.690  -3.788  24.672  1.00 39.84     0.018 A 
BRANCH  15  18
HETATM   18  O23 RAL A 600      33.084  -3.922  21.130  1.00 36.45    -0.349 OA
BRANCH  18  19
HETATM   19  C24 RAL A 600      33.826  -3.039  20.303  1.00 38.03     0.206 C 
BRANCH  19  20
HETATM   20  C25 RAL A 600      32.916  -2.352  19.320  1.00 43.08     0.299 C 
BRANCH  20  21
HETATM   21  N26 RAL A 600      31.704  -2.847  18.696  1.00 46.61     0.090 N 
HETATM   22  C27 RAL A 600      30.591  -2.736  19.661  1.00 47.65     0.272 C 
HETATM   23  C28 RAL A 600      29.214  -3.090  19.066  1.00 48.95     0.030 C 
HETATM   24  C29 RAL A 600      29.284  -4.563  18.632  1.00 50.06     0.003 C 
HETATM   25  C30 RAL A 600      30.347  -4.567  17.491  1.00 50.91     0.030 C 
HETATM   26  C31 RAL A 600      31.699  -4.213  18.135  1.00 50.67     0.272 C 
ENDBRANCH  20  21
ENDBRANCH  19  20
ENDBRANCH  18  19
ENDBRANCH  15  18
ENDBRANCH  10  12
ENDBRANCH   9  10
BRANCH   7  27
HETATM   27  C8  RAL A 600      32.489   0.500  27.015  1.00 35.62    -0.018 A 
HETATM   28  C9  RAL A 600      33.126   0.955  25.877  1.00 35.20     0.015 A 
HETATM   29  C10 RAL A 600      34.406   1.470  26.002  1.00 38.32     0.037 A 
HETATM   30  C11 RAL A 600      35.057   1.497  27.219  1.00 39.44     0.065 A 
HETATM   31  C12 RAL A 600      34.402   1.085  28.362  1.00 36.17     0.037 A 
HETATM   32  C13 RAL A 600      33.112   0.586  28.229  1.00 34.51     0.015 A 
BRANCH  30  33
HETATM   33  O11 RAL A 600      36.343   2.038  27.247  1.00 46.17    -0.361 OA
ATOM     34  H11 RAL A 600      36.793   2.139  26.416  1.00  0.00     0.217 HD
ENDBRANCH  30  33
ENDBRANCH   7  27
BRANCH   3  35
HETATM   35  O3  RAL A 600      25.050  -1.129  26.619  1.00 32.81    -0.361 OA
ATOM     36  H3  RAL A 600      24.630  -1.827  26.130  1.00  0.00     0.217 HD
ENDBRANCH   3  35
TORSDOF 9
