FLP.pdb
  rDOCK(R)          3D
libRbt.so/2013.1/901 2013/11/27
 19 20  0  0  0  0  0  0  0  0999 V2000
   24.9962   24.8647   11.5202 C   0  0  0  0  0  0
   24.6305   24.3410   12.7800 C   0  0  0  0  0  0
   24.0443   23.0822   12.8655 C   0  0  0  0  0  0
   23.8255   22.3517   11.6962 C   0  0  0  0  0  0
   24.1937   22.8802   10.4441 C   0  0  0  0  0  0
   24.7793   24.1393   10.3617 C   0  0  0  0  0  0
   23.6150   22.5185   14.2032 C   0  0  0  0  0  0
   22.2605   22.2039   14.4703 C   0  0  0  0  0  0
   21.8944   21.6534   15.7365 C   0  0  0  0  0  0
   22.9122   21.4261   16.7259 C   0  0  0  0  0  0
   24.2376   21.7341   16.4443 C   0  0  0  0  0  0
   24.5963   22.2772   15.2065 C   0  0  0  0  0  0
   22.5628   20.9399   18.1175 C   0  0  0  0  0  0
   23.7413   20.1928   18.7374 C   0  0  0  0  0  0
   21.3505   20.0164   18.0039 C   0  0  0  0  0  0
   21.3066   19.1729   17.1427 O   0  0  0  0  0  0
   20.3345   20.1475   18.8153 O   0  0  0  0  0  0
   25.8998   22.5884   14.9769 F   0  0  0  0  0  0
   19.5606   19.6357   18.6836 H   0  0  0  0  0  0
  1  2  2  0  0  0
  2  3  1  0  0  0
  3  7  1  0  0  0
  4  3  2  0  0  0
  5  4  1  0  0  0
  6  5  2  0  0  0
  6  1  1  0  0  0
  7  8  2  0  0  0
  7 12  1  0  0  0
  8  9  1  0  0  0
  9 10  2  0  0  0
 10 13  1  0  0  0
 11 10  1  0  0  0
 12 11  2  0  0  0
 13 14  1  0  0  0
 15 17  1  0  0  0
 15 13  1  0  0  0
 16 15  2  0  0  0
 17 19  1  0  0  0
 18 12  1  0  0  0
M  END
>  <CHROM.0>
11.27553247,-41.64151942,28.97379047,51.67408461,-16.31860997,-72.15233648
55.35052931

>  <CHROM.1>
118.45644067,154.26364419,173.80820021,45.20391456,23.38617615,21.96366622
15.01655593,-1.17204593,0.38075460,1.91053860

>  <FORMUL>
      FLP    C15 H13 F1 O2

>  <HET>
 FLP  A 701      18

>  <HETNAM>
     FLP FLURBIPROFEN

>  <Name>
FLP.pdb

>  <RI>
0

>  <Rbt.Current_Directory>
/home/malgorzata/Desktop/rDOCK_IFD/test4

>  <Rbt.Executable>
rbdock ($Id: //depot/dev/client3/rdock/2013.1/src/exe/rbdock.cxx#4 $)

>  <Rbt.Library>
libRbt.so (2013.1, Build901 2013/11/27)

>  <Rbt.Parameter_File>
/home/malgorzata/Desktop/rDock_2013.1_src/data/scripts/soft_docking.prm

>  <Rbt.Receptor>
cavity.prm

>  <SCORE>
-29.3451

>  <SCORE.INTER>
-21.5291

>  <SCORE.INTER.CONST>
1

>  <SCORE.INTER.POLAR>
-1.30995

>  <SCORE.INTER.REPUL>
0

>  <SCORE.INTER.ROT>
3

>  <SCORE.INTER.VDW>
-25.4753

>  <SCORE.INTER.norm>
-1.19606

>  <SCORE.INTRA>
1.17129

>  <SCORE.INTRA.DIHEDRAL>
1.42

>  <SCORE.INTRA.DIHEDRAL.0>
5.47211

>  <SCORE.INTRA.POLAR>
0

>  <SCORE.INTRA.POLAR.0>
0

>  <SCORE.INTRA.REPUL>
0

>  <SCORE.INTRA.REPUL.0>
0

>  <SCORE.INTRA.VDW>
0.887293

>  <SCORE.INTRA.VDW.0>
0.722234

>  <SCORE.INTRA.norm>
0.0650718

>  <SCORE.RESTR>
0

>  <SCORE.RESTR.CAVITY>
0

>  <SCORE.RESTR.norm>
0

>  <SCORE.SYSTEM>
-8.98728

>  <SCORE.SYSTEM.CONST>
0

>  <SCORE.SYSTEM.DIHEDRAL>
4.35186

>  <SCORE.SYSTEM.POLAR>
-3.27195

>  <SCORE.SYSTEM.REPUL>
0.99113

>  <SCORE.SYSTEM.VDW>
-4.99424

>  <SCORE.SYSTEM.norm>
-0.499293

>  <SCORE.heavy>
18

>  <SCORE.norm>
-1.63028

$$$$
FLP.pdb
  rDOCK(R)          3D
libRbt.so/2013.1/901 2013/11/27
 19 20  0  0  0  0  0  0  0  0999 V2000
   23.5168   21.0844   18.5644 C   0  0  0  0  0  0
   24.0206   21.6285   17.3623 C   0  0  0  0  0  0
   23.1706   21.8247   16.2786 C   0  0  0  0  0  0
   21.8236   21.4781   16.3977 C   0  0  0  0  0  0
   21.3287   20.9370   17.5998 C   0  0  0  0  0  0
   22.1811   20.7417   18.6816 C   0  0  0  0  0  0
   23.6991   22.3752   14.9712 C   0  0  0  0  0  0
   22.8346   22.9605   14.0145 C   0  0  0  0  0  0
   23.3708   23.4892   12.8007 C   0  0  0  0  0  0
   24.7874   23.4185   12.5674 C   0  0  0  0  0  0
   25.6220   22.8471   13.5203 C   0  0  0  0  0  0
   25.0975   22.3253   14.7070 C   0  0  0  0  0  0
   25.3928   23.8724   11.2549 C   0  0  0  0  0  0
   25.4130   25.3968   11.1711 C   0  0  0  0  0  0
   24.5503   23.2903   10.1206 C   0  0  0  0  0  0
   24.1745   23.9962    9.2175 O   0  0  0  0  0  0
   24.2001   22.0312   10.1289 O   0  0  0  0  0  0
   25.9428   21.7520   15.6044 F   0  0  0  0  0  0
   24.7834   21.3850   10.4756 H   0  0  0  0  0  0
  1  2  2  0  0  0
  2  3  1  0  0  0
  3  7  1  0  0  0
  4  3  2  0  0  0
  5  4  1  0  0  0
  6  5  2  0  0  0
  6  1  1  0  0  0
  7  8  2  0  0  0
  7 12  1  0  0  0
  8  9  1  0  0  0
  9 10  2  0  0  0
 10 13  1  0  0  0
 11 10  1  0  0  0
 12 11  2  0  0  0
 13 14  1  0  0  0
 15 17  1  0  0  0
 15 13  1  0  0  0
 16 15  2  0  0  0
 17 19  1  0  0  0
 18 12  1  0  0  0
M  END
>  <CHROM.0>
-152.04387112,95.51472039,-9.97204308,-92.07910217,171.95896731,64.50808422
-49.04070416

>  <CHROM.1>
-160.44058163,74.76832296,-35.02002859,131.46050477,24.01507989,22.53444157
14.05928853,-1.81522873,-0.20042494,-1.28128595

>  <FORMUL>
      FLP    C15 H13 F1 O2

>  <HET>
 FLP  A 701      18

>  <HETNAM>
     FLP FLURBIPROFEN

>  <Name>
FLP.pdb

>  <RI>
0

>  <Rbt.Current_Directory>
/home/malgorzata/Desktop/rDOCK_IFD/test4

>  <Rbt.Executable>
rbdock ($Id: //depot/dev/client3/rdock/2013.1/src/exe/rbdock.cxx#4 $)

>  <Rbt.Library>
libRbt.so (2013.1, Build901 2013/11/27)

>  <Rbt.Parameter_File>
/home/malgorzata/Desktop/rDock_2013.1_src/data/scripts/soft_docking.prm

>  <Rbt.Receptor>
cavity.prm

>  <SCORE>
-22.4986

>  <SCORE.INTER>
-20.0852

>  <SCORE.INTER.CONST>
1

>  <SCORE.INTER.POLAR>
-0.142828

>  <SCORE.INTER.REPUL>
0

>  <SCORE.INTER.ROT>
3

>  <SCORE.INTER.VDW>
-27.9996

>  <SCORE.INTER.norm>
-1.11585

>  <SCORE.INTRA>
1.60347

>  <SCORE.INTRA.DIHEDRAL>
4.01638

>  <SCORE.INTRA.DIHEDRAL.0>
5.47211

>  <SCORE.INTRA.POLAR>
0

>  <SCORE.INTRA.POLAR.0>
0

>  <SCORE.INTRA.REPUL>
0

>  <SCORE.INTRA.REPUL.0>
0

>  <SCORE.INTRA.VDW>
0.800194

>  <SCORE.INTRA.VDW.0>
0.722234

>  <SCORE.INTRA.norm>
0.0890816

>  <SCORE.RESTR>
0

>  <SCORE.RESTR.CAVITY>
0

>  <SCORE.RESTR.norm>
0

>  <SCORE.SYSTEM>
-4.01685

>  <SCORE.SYSTEM.CONST>
0

>  <SCORE.SYSTEM.DIHEDRAL>
7.04836

>  <SCORE.SYSTEM.POLAR>
-1.62773

>  <SCORE.SYSTEM.REPUL>
0.648822

>  <SCORE.SYSTEM.VDW>
-5.25085

>  <SCORE.SYSTEM.norm>
-0.223158

>  <SCORE.heavy>
18

>  <SCORE.norm>
-1.24992

$$$$
FLP.pdb
  rDOCK(R)          3D
libRbt.so/2013.1/901 2013/11/27
 19 20  0  0  0  0  0  0  0  0999 V2000
   31.0824   20.0904   19.8883 C   0  0  0  0  0  0
   29.7654   20.0096   19.3845 C   0  0  0  0  0  0
   28.9164   21.1075   19.4802 C   0  0  0  0  0  0
   29.3834   22.2799   20.0769 C   0  0  0  0  0  0
   30.6980   22.3530   20.5760 C   0  0  0  0  0  0
   31.5445   21.2534   20.4792 C   0  0  0  0  0  0
   27.4911   21.0289   18.9763 C   0  0  0  0  0  0
   26.4081   21.5143   19.7487 C   0  0  0  0  0  0
   25.0781   21.4433   19.2326 C   0  0  0  0  0  0
   24.8579   20.8769   17.9299 C   0  0  0  0  0  0
   25.9331   20.4117   17.1825 C   0  0  0  0  0  0
   27.2351   20.4769   17.6888 C   0  0  0  0  0  0
   23.4591   20.6865   17.3803 C   0  0  0  0  0  0
   22.6278   21.9521   17.5763 C   0  0  0  0  0  0
   22.8182   19.5118   18.1185 C   0  0  0  0  0  0
   22.4524   18.5370   17.5094 O   0  0  0  0  0  0
   22.6298   19.5596   19.4108 O   0  0  0  0  0  0
   28.2585   19.9892   16.9382 F   0  0  0  0  0  0
   22.9809   18.8869   19.9606 H   0  0  0  0  0  0
  1  2  2  0  0  0
  2  3  1  0  0  0
  3  7  1  0  0  0
  4  3  2  0  0  0
  5  4  1  0  0  0
  6  5  2  0  0  0
  6  1  1  0  0  0
  7  8  2  0  0  0
  7 12  1  0  0  0
  8  9  1  0  0  0
  9 10  2  0  0  0
 10 13  1  0  0  0
 11 10  1  0  0  0
 12 11  2  0  0  0
 13 14  1  0  0  0
 15 17  1  0  0  0
 15 13  1  0  0  0
 16 15  2  0  0  0
 17 19  1  0  0  0
 18 12  1  0  0  0
M  END
>  <CHROM.0>
-4.48413482,-52.73309055,-79.05049246,-14.40646886,20.59627091,-164.70354557
43.52343363

>  <CHROM.1>
133.89137282,47.28255213,-124.61277769,-119.87598758,26.59878334,20.67289061
18.70444121,-0.27580216,0.06097317,-2.30919952

>  <FORMUL>
      FLP    C15 H13 F1 O2

>  <HET>
 FLP  A 701      18

>  <HETNAM>
     FLP FLURBIPROFEN

>  <Name>
FLP.pdb

>  <RI>
0

>  <Rbt.Current_Directory>
/home/malgorzata/Desktop/rDOCK_IFD/test4

>  <Rbt.Executable>
rbdock ($Id: //depot/dev/client3/rdock/2013.1/src/exe/rbdock.cxx#4 $)

>  <Rbt.Library>
libRbt.so (2013.1, Build901 2013/11/27)

>  <Rbt.Parameter_File>
/home/malgorzata/Desktop/rDock_2013.1_src/data/scripts/soft_docking.prm

>  <Rbt.Receptor>
cavity.prm

>  <SCORE>
-26.3894

>  <SCORE.INTER>
-21.0514

>  <SCORE.INTER.CONST>
1

>  <SCORE.INTER.POLAR>
-1.41506

>  <SCORE.INTER.REPUL>
0

>  <SCORE.INTER.ROT>
3

>  <SCORE.INTER.VDW>
-24.6402

>  <SCORE.INTER.norm>
-1.16952

>  <SCORE.INTRA>
1.51697

>  <SCORE.INTRA.DIHEDRAL>
14.5791

>  <SCORE.INTRA.DIHEDRAL.0>
5.47211

>  <SCORE.INTRA.POLAR>
0

>  <SCORE.INTRA.POLAR.0>
0

>  <SCORE.INTRA.REPUL>
0

>  <SCORE.INTRA.REPUL.0>
0

>  <SCORE.INTRA.VDW>
-1.39885

>  <SCORE.INTRA.VDW.0>
0.722234

>  <SCORE.INTRA.norm>
0.0842762

>  <SCORE.RESTR>
0

>  <SCORE.RESTR.CAVITY>
0

>  <SCORE.RESTR.norm>
0

>  <SCORE.SYSTEM>
-6.85495

>  <SCORE.SYSTEM.CONST>
0

>  <SCORE.SYSTEM.DIHEDRAL>
8.26874

>  <SCORE.SYSTEM.POLAR>
-2.73291

>  <SCORE.SYSTEM.REPUL>
0.64611

>  <SCORE.SYSTEM.VDW>
-4.92796

>  <SCORE.SYSTEM.norm>
-0.380831

>  <SCORE.heavy>
18

>  <SCORE.norm>
-1.46608

$$$$
FLP.pdb
  rDOCK(R)          3D
libRbt.so/2013.1/901 2013/11/27
 19 20  0  0  0  0  0  0  0  0999 V2000
   18.7090   22.0269   18.8860 C   0  0  0  0  0  0
   19.8726   21.2269   18.8582 C   0  0  0  0  0  0
   20.5629   21.0459   17.6640 C   0  0  0  0  0  0
   20.0908   21.6625   16.5039 C   0  0  0  0  0  0
   18.9305   22.4594   16.5399 C   0  0  0  0  0  0
   18.2422   22.6383   17.7355 C   0  0  0  0  0  0
   21.7927   20.1649   17.6076 C   0  0  0  0  0  0
   21.6905   18.7530   17.6415 C   0  0  0  0  0  0
   22.8709   17.9524   17.5649 C   0  0  0  0  0  0
   24.1517   18.5955   17.4542 C   0  0  0  0  0  0
   24.2330   19.9822   17.4152 C   0  0  0  0  0  0
   23.0782   20.7670   17.4945 C   0  0  0  0  0  0
   25.4384   17.7960   17.4715 C   0  0  0  0  0  0
   25.8887   17.4715   16.0491 C   0  0  0  0  0  0
   25.1828   16.5081   18.2535 C   0  0  0  0  0  0
   24.5181   15.6248   17.7708 O   0  0  0  0  0  0
   25.6528   16.3588   19.4637 O   0  0  0  0  0  0
   23.1999   22.1211   17.4779 F   0  0  0  0  0  0
   26.0601   17.0808   19.9005 H   0  0  0  0  0  0
  1  2  2  0  0  0
  2  3  1  0  0  0
  3  7  1  0  0  0
  4  3  2  0  0  0
  5  4  1  0  0  0
  6  5  2  0  0  0
  6  1  1  0  0  0
  7  8  2  0  0  0
  7 12  1  0  0  0
  8  9  1  0  0  0
  9 10  2  0  0  0
 10 13  1  0  0  0
 11 10  1  0  0  0
 12 11  2  0  0  0
 13 14  1  0  0  0
 15 17  1  0  0  0
 15 13  1  0  0  0
 16 15  2  0  0  0
 17 19  1  0  0  0
 18 12  1  0  0  0
M  END
>  <CHROM.0>
-175.94891845,85.95516743,-19.84770252,-47.56297331,18.57329678,-51.18234904
42.29234950

>  <CHROM.1>
74.78888682,94.05060812,7.52907355,72.87445630,22.56586182,19.56839547,17.67263743
2.46307368,0.30458953,-0.39345803

>  <FORMUL>
      FLP    C15 H13 F1 O2

>  <HET>
 FLP  A 701      18

>  <HETNAM>
     FLP FLURBIPROFEN

>  <Name>
FLP.pdb

>  <RI>
0

>  <Rbt.Current_Directory>
/home/malgorzata/Desktop/rDOCK_IFD/test4

>  <Rbt.Executable>
rbdock ($Id: //depot/dev/client3/rdock/2013.1/src/exe/rbdock.cxx#4 $)

>  <Rbt.Library>
libRbt.so (2013.1, Build901 2013/11/27)

>  <Rbt.Parameter_File>
/home/malgorzata/Desktop/rDock_2013.1_src/data/scripts/soft_docking.prm

>  <Rbt.Receptor>
cavity.prm

>  <SCORE>
-31.211

>  <SCORE.INTER>
-21.7704

>  <SCORE.INTER.CONST>
1

>  <SCORE.INTER.POLAR>
-1.31406

>  <SCORE.INTER.REPUL>
0.0609636

>  <SCORE.INTER.ROT>
3

>  <SCORE.INTER.VDW>
-26.0074

>  <SCORE.INTER.norm>
-1.20947

>  <SCORE.INTRA>
-0.751075

>  <SCORE.INTRA.DIHEDRAL>
2.40628

>  <SCORE.INTRA.DIHEDRAL.0>
5.47211

>  <SCORE.INTRA.POLAR>
0

>  <SCORE.INTRA.POLAR.0>
0

>  <SCORE.INTRA.REPUL>
0

>  <SCORE.INTRA.REPUL.0>
0

>  <SCORE.INTRA.VDW>
-1.23233

>  <SCORE.INTRA.VDW.0>
0.722234

>  <SCORE.INTRA.norm>
-0.0417264

>  <SCORE.RESTR>
0

>  <SCORE.RESTR.CAVITY>
0

>  <SCORE.RESTR.norm>
0

>  <SCORE.SYSTEM>
-8.68948

>  <SCORE.SYSTEM.CONST>
0

>  <SCORE.SYSTEM.DIHEDRAL>
6.16722

>  <SCORE.SYSTEM.POLAR>
-2.82876

>  <SCORE.SYSTEM.REPUL>
0.64611

>  <SCORE.SYSTEM.VDW>
-5.38586

>  <SCORE.SYSTEM.norm>
-0.482749

>  <SCORE.heavy>
18

>  <SCORE.norm>
-1.73394

$$$$
FLP.pdb
  rDOCK(R)          3D
libRbt.so/2013.1/901 2013/11/27
 19 20  0  0  0  0  0  0  0  0999 V2000
   25.1066   24.1891   10.8899 C   0  0  0  0  0  0
   25.0395   23.6363   12.1879 C   0  0  0  0  0  0
   23.8608   23.0452   12.6312 C   0  0  0  0  0  0
   22.7553   23.0075   11.7797 C   0  0  0  0  0  0
   22.8303   23.5599   10.4867 C   0  0  0  0  0  0
   24.0102   24.1507   10.0463 C   0  0  0  0  0  0
   23.7594   22.4774   14.0309 C   0  0  0  0  0  0
   23.2111   23.2334   15.0953 C   0  0  0  0  0  0
   23.1113   22.6580   16.3988 C   0  0  0  0  0  0
   23.5718   21.3130   16.6117 C   0  0  0  0  0  0
   24.1007   20.5830   15.5541 C   0  0  0  0  0  0
   24.2028   21.1470   14.2785 C   0  0  0  0  0  0
   23.5814   20.6936   17.9942 C   0  0  0  0  0  0
   24.9580   20.1160   18.3147 C   0  0  0  0  0  0
   22.5238   19.5909   18.0242 C   0  0  0  0  0  0
   22.3242   18.9123   17.0471 O   0  0  0  0  0  0
   21.8018   19.3889   19.0946 O   0  0  0  0  0  0
   24.7484   20.4102   13.2746 F   0  0  0  0  0  0
   22.0568   19.7720   19.9109 H   0  0  0  0  0  0
  1  2  2  0  0  0
  2  3  1  0  0  0
  3  7  1  0  0  0
  4  3  2  0  0  0
  5  4  1  0  0  0
  6  5  2  0  0  0
  6  1  1  0  0  0
  7  8  2  0  0  0
  7 12  1  0  0  0
  8  9  1  0  0  0
  9 10  2  0  0  0
 10 13  1  0  0  0
 11 10  1  0  0  0
 12 11  2  0  0  0
 13 14  1  0  0  0
 15 17  1  0  0  0
 15 13  1  0  0  0
 16 15  2  0  0  0
 17 19  1  0  0  0
 18 12  1  0  0  0
M  END
>  <CHROM.0>
-3.90887407,70.05197401,37.17377572,-123.09292973,20.17436202,-71.34173792
59.82864048

>  <CHROM.1>
95.84797153,-127.87365471,-14.51767138,35.82410938,23.63294362,21.66960050
14.74434484,-1.40594216,-0.63521363,2.16598438

>  <FORMUL>
      FLP    C15 H13 F1 O2

>  <HET>
 FLP  A 701      18

>  <HETNAM>
     FLP FLURBIPROFEN

>  <Name>
FLP.pdb

>  <RI>
0

>  <Rbt.Current_Directory>
/home/malgorzata/Desktop/rDOCK_IFD/test4

>  <Rbt.Executable>
rbdock ($Id: //depot/dev/client3/rdock/2013.1/src/exe/rbdock.cxx#4 $)

>  <Rbt.Library>
libRbt.so (2013.1, Build901 2013/11/27)

>  <Rbt.Parameter_File>
/home/malgorzata/Desktop/rDock_2013.1_src/data/scripts/soft_docking.prm

>  <Rbt.Receptor>
cavity.prm

>  <SCORE>
-31.628

>  <SCORE.INTER>
-21.0389

>  <SCORE.INTER.CONST>
1

>  <SCORE.INTER.POLAR>
-1.591

>  <SCORE.INTER.REPUL>
0.0116761

>  <SCORE.INTER.ROT>
3

>  <SCORE.INTER.VDW>
-24.0879

>  <SCORE.INTER.norm>
-1.16883

>  <SCORE.INTRA>
-0.296473

>  <SCORE.INTRA.DIHEDRAL>
3.10938

>  <SCORE.INTRA.DIHEDRAL.0>
5.47211

>  <SCORE.INTRA.POLAR>
0

>  <SCORE.INTRA.POLAR.0>
0

>  <SCORE.INTRA.REPUL>
0

>  <SCORE.INTRA.REPUL.0>
0

>  <SCORE.INTRA.VDW>
-0.918348

>  <SCORE.INTRA.VDW.0>
0.722234

>  <SCORE.INTRA.norm>
-0.0164707

>  <SCORE.RESTR>
0.110824

>  <SCORE.RESTR.CAVITY>
0.110824

>  <SCORE.RESTR.norm>
0.00615691

>  <SCORE.SYSTEM>
-10.4034

>  <SCORE.SYSTEM.CONST>
0

>  <SCORE.SYSTEM.DIHEDRAL>
3.70471

>  <SCORE.SYSTEM.POLAR>
-3.07854

>  <SCORE.SYSTEM.REPUL>
0.64611

>  <SCORE.SYSTEM.VDW>
-5.01923

>  <SCORE.SYSTEM.norm>
-0.577965

>  <SCORE.heavy>
18

>  <SCORE.norm>
-1.75711

$$$$
FLP.pdb
  rDOCK(R)          3D
libRbt.so/2013.1/901 2013/11/27
 19 20  0  0  0  0  0  0  0  0999 V2000
   18.9926   22.5749   16.3388 C   0  0  0  0  0  0
   20.2042   21.8531   16.4151 C   0  0  0  0  0  0
   20.4099   20.9485   17.4519 C   0  0  0  0  0  0
   19.4080   20.7675   18.4069 C   0  0  0  0  0  0
   18.2024   21.4901   18.3235 C   0  0  0  0  0  0
   17.9997   22.3942   17.2859 C   0  0  0  0  0  0
   21.7151   20.1907   17.5692 C   0  0  0  0  0  0
   22.9466   20.8664   17.7479 C   0  0  0  0  0  0
   24.1565   20.1180   17.8762 C   0  0  0  0  0  0
   24.1053   18.6825   17.8214 C   0  0  0  0  0  0
   22.8872   18.0355   17.6526 C   0  0  0  0  0  0
   21.7027   18.7674   17.5226 C   0  0  0  0  0  0
   25.3693   17.8479   17.8509 C   0  0  0  0  0  0
   26.1239   17.9685   16.5291 C   0  0  0  0  0  0
   24.9691   16.3945   18.1021 C   0  0  0  0  0  0
   25.5786   15.7245   18.8987 O   0  0  0  0  0  0
   23.9846   15.8500   17.4374 O   0  0  0  0  0  0
   20.5334   18.0997   17.3342 F   0  0  0  0  0  0
   23.7462   14.9584   17.5997 H   0  0  0  0  0  0
  1  2  2  0  0  0
  2  3  1  0  0  0
  3  7  1  0  0  0
  4  3  2  0  0  0
  5  4  1  0  0  0
  6  5  2  0  0  0
  6  1  1  0  0  0
  7  8  2  0  0  0
  7 12  1  0  0  0
  8  9  1  0  0  0
  9 10  2  0  0  0
 10 13  1  0  0  0
 11 10  1  0  0  0
 12 11  2  0  0  0
 13 14  1  0  0  0
 15 17  1  0  0  0
 15 13  1  0  0  0
 16 15  2  0  0  0
 17 19  1  0  0  0
 18 12  1  0  0  0
M  END
>  <CHROM.0>
-43.02702229,45.95362230,-19.43213568,-178.99540416,-132.88456206,37.63213395
44.48273479

>  <CHROM.1>
61.19670746,-72.05182305,-179.91088514,-135.40003580,22.23656947,19.22480482
17.58404024,-2.46626499,-0.08452138,2.93545544

>  <FORMUL>
      FLP    C15 H13 F1 O2

>  <HET>
 FLP  A 701      18

>  <HETNAM>
     FLP FLURBIPROFEN

>  <Name>
FLP.pdb

>  <RI>
0

>  <Rbt.Current_Directory>
/home/malgorzata/Desktop/rDOCK_IFD/test4

>  <Rbt.Executable>
rbdock ($Id: //depot/dev/client3/rdock/2013.1/src/exe/rbdock.cxx#4 $)

>  <Rbt.Library>
libRbt.so (2013.1, Build901 2013/11/27)

>  <Rbt.Parameter_File>
/home/malgorzata/Desktop/rDock_2013.1_src/data/scripts/soft_docking.prm

>  <Rbt.Receptor>
cavity.prm

>  <SCORE>
-27.868

>  <SCORE.INTER>
-24.1838

>  <SCORE.INTER.CONST>
1

>  <SCORE.INTER.POLAR>
-2.1035

>  <SCORE.INTER.REPUL>
0.0842379

>  <SCORE.INTER.ROT>
3

>  <SCORE.INTER.VDW>
-25.8531

>  <SCORE.INTER.norm>
-1.34355

>  <SCORE.INTRA>
1.96532

>  <SCORE.INTRA.DIHEDRAL>
0.0656526

>  <SCORE.INTRA.DIHEDRAL.0>
5.47211

>  <SCORE.INTRA.POLAR>
0

>  <SCORE.INTRA.POLAR.0>
0

>  <SCORE.INTRA.REPUL>
0

>  <SCORE.INTRA.REPUL.0>
0

>  <SCORE.INTRA.VDW>
1.95219

>  <SCORE.INTRA.VDW.0>
0.722234

>  <SCORE.INTRA.norm>
0.109184

>  <SCORE.RESTR>
0.176434

>  <SCORE.RESTR.CAVITY>
0.176434

>  <SCORE.RESTR.norm>
0.0098019

>  <SCORE.SYSTEM>
-5.8259

>  <SCORE.SYSTEM.CONST>
0

>  <SCORE.SYSTEM.DIHEDRAL>
10.0881

>  <SCORE.SYSTEM.POLAR>
-2.93608

>  <SCORE.SYSTEM.REPUL>
0.687793

>  <SCORE.SYSTEM.VDW>
-4.32625

>  <SCORE.SYSTEM.norm>
-0.323661

>  <SCORE.heavy>
18

>  <SCORE.norm>
-1.54822

$$$$
FLP.pdb
  rDOCK(R)          3D
libRbt.so/2013.1/901 2013/11/27
 19 20  0  0  0  0  0  0  0  0999 V2000
   18.6851   23.1365   17.8053 C   0  0  0  0  0  0
   20.0221   22.6868   17.8771 C   0  0  0  0  0  0
   20.5619   21.9429   16.8327 C   0  0  0  0  0  0
   19.7676   21.6510   15.7225 C   0  0  0  0  0  0
   18.4359   22.1037   15.6578 C   0  0  0  0  0  0
   17.8988   22.8470   16.7038 C   0  0  0  0  0  0
   21.9820   21.4238   16.9066 C   0  0  0  0  0  0
   22.9359   21.7411   15.9093 C   0  0  0  0  0  0
   24.2729   21.2513   16.0223 C   0  0  0  0  0  0
   24.6318   20.4390   17.1527 C   0  0  0  0  0  0
   23.6848   20.1432   18.1257 C   0  0  0  0  0  0
   22.3744   20.6187   18.0137 C   0  0  0  0  0  0
   26.0062   19.8124   17.2673 C   0  0  0  0  0  0
   26.0441   18.4649   16.5503 C   0  0  0  0  0  0
   26.3199   19.6317   18.7521 C   0  0  0  0  0  0
   26.4064   18.5256   19.2255 O   0  0  0  0  0  0
   26.4673   20.6690   19.5331 O   0  0  0  0  0  0
   21.4697   20.2879   18.9732 F   0  0  0  0  0  0
   26.4763   20.5574   20.4635 H   0  0  0  0  0  0
  1  2  2  0  0  0
  2  3  1  0  0  0
  3  7  1  0  0  0
  4  3  2  0  0  0
  5  4  1  0  0  0
  6  5  2  0  0  0
  6  1  1  0  0  0
  7  8  2  0  0  0
  7 12  1  0  0  0
  8  9  1  0  0  0
  9 10  2  0  0  0
 10 13  1  0  0  0
 11 10  1  0  0  0
 12 11  2  0  0  0
 13 14  1  0  0  0
 15 17  1  0  0  0
 15 13  1  0  0  0
 16 15  2  0  0  0
 17 19  1  0  0  0
 18 12  1  0  0  0
M  END
>  <CHROM.0>
-5.18045873,-49.09336602,26.36817570,-21.24270235,3.92191211,-66.05932669
40.67541774

>  <CHROM.1>
-123.42656235,-86.60434104,166.92682595,112.80925530,22.76075464,20.89623884
17.48073100,2.93148547,0.38252481,-1.52363452

>  <FORMUL>
      FLP    C15 H13 F1 O2

>  <HET>
 FLP  A 701      18

>  <HETNAM>
     FLP FLURBIPROFEN

>  <Name>
FLP.pdb

>  <RI>
0

>  <Rbt.Current_Directory>
/home/malgorzata/Desktop/rDOCK_IFD/test4

>  <Rbt.Executable>
rbdock ($Id: //depot/dev/client3/rdock/2013.1/src/exe/rbdock.cxx#4 $)

>  <Rbt.Library>
libRbt.so (2013.1, Build901 2013/11/27)

>  <Rbt.Parameter_File>
/home/malgorzata/Desktop/rDock_2013.1_src/data/scripts/soft_docking.prm

>  <Rbt.Receptor>
cavity.prm

>  <SCORE>
-31.0272

>  <SCORE.INTER>
-19.576

>  <SCORE.INTER.CONST>
1

>  <SCORE.INTER.POLAR>
-0.391274

>  <SCORE.INTER.REPUL>
0

>  <SCORE.INTER.ROT>
3

>  <SCORE.INTER.VDW>
-26.6457

>  <SCORE.INTER.norm>
-1.08756

>  <SCORE.INTRA>
0.207814

>  <SCORE.INTRA.DIHEDRAL>
0.591682

>  <SCORE.INTRA.DIHEDRAL.0>
5.47211

>  <SCORE.INTRA.POLAR>
0

>  <SCORE.INTRA.POLAR.0>
0

>  <SCORE.INTRA.REPUL>
0

>  <SCORE.INTRA.REPUL.0>
0

>  <SCORE.INTRA.VDW>
0.089478

>  <SCORE.INTRA.VDW.0>
0.722234

>  <SCORE.INTRA.norm>
0.0115452

>  <SCORE.RESTR>
0

>  <SCORE.RESTR.CAVITY>
0

>  <SCORE.RESTR.norm>
0

>  <SCORE.SYSTEM>
-11.6589

>  <SCORE.SYSTEM.CONST>
0

>  <SCORE.SYSTEM.DIHEDRAL>
3.73496

>  <SCORE.SYSTEM.POLAR>
-3.51113

>  <SCORE.SYSTEM.REPUL>
0.64611

>  <SCORE.SYSTEM.VDW>
-4.81914

>  <SCORE.SYSTEM.norm>
-0.647719

>  <SCORE.heavy>
18

>  <SCORE.norm>
-1.72373

$$$$
FLP.pdb
  rDOCK(R)          3D
libRbt.so/2013.1/901 2013/11/27
 19 20  0  0  0  0  0  0  0  0999 V2000
   23.1555   23.0284   11.8536 C   0  0  0  0  0  0
   23.7613   22.8019   13.1092 C   0  0  0  0  0  0
   24.9342   22.0583   13.1907 C   0  0  0  0  0  0
   25.4976   21.5441   12.0214 C   0  0  0  0  0  0
   24.8881   21.7750   10.7733 C   0  0  0  0  0  0
   23.7152   22.5187   10.6950 C   0  0  0  0  0  0
   25.5798   21.7768   14.5307 C   0  0  0  0  0  0
   25.5420   22.7255   15.5811 C   0  0  0  0  0  0
   26.1433   22.4176   16.8397 C   0  0  0  0  0  0
   26.7813   21.1424   17.0217 C   0  0  0  0  0  0
   26.8029   20.2204   15.9823 C   0  0  0  0  0  0
   26.2183   20.5226   14.7484 C   0  0  0  0  0  0
   27.5202   20.8072   18.3011 C   0  0  0  0  0  0
   28.9995   20.5571   18.0175 C   0  0  0  0  0  0
   26.8775   19.5585   18.9036 C   0  0  0  0  0  0
   26.7380   19.4618   20.0979 O   0  0  0  0  0  0
   26.4997   18.5683   18.1390 O   0  0  0  0  0  0
   26.2810   19.6045   13.7476 F   0  0  0  0  0  0
   25.6589   18.1741   18.2641 H   0  0  0  0  0  0
  1  2  2  0  0  0
  2  3  1  0  0  0
  3  7  1  0  0  0
  4  3  2  0  0  0
  5  4  1  0  0  0
  6  5  2  0  0  0
  6  1  1  0  0  0
  7  8  2  0  0  0
  7 12  1  0  0  0
  8  9  1  0  0  0
  9 10  2  0  0  0
 10 13  1  0  0  0
 11 10  1  0  0  0
 12 11  2  0  0  0
 13 14  1  0  0  0
 15 17  1  0  0  0
 15 13  1  0  0  0
 16 15  2  0  0  0
 17 19  1  0  0  0
 18 12  1  0  0  0
M  END
>  <CHROM.0>
5.63908749,-164.02456893,15.00893167,-68.56092431,-23.52449681,-57.23916488
-73.58925280

>  <CHROM.1>
-34.73540973,-117.47203871,-134.14238295,-141.38805614,25.93367702,21.06647851
15.28363327,2.41765585,1.04723562,-2.01203637

>  <FORMUL>
      FLP    C15 H13 F1 O2

>  <HET>
 FLP  A 701      18

>  <HETNAM>
     FLP FLURBIPROFEN

>  <Name>
FLP.pdb

>  <RI>
0

>  <Rbt.Current_Directory>
/home/malgorzata/Desktop/rDOCK_IFD/test4

>  <Rbt.Executable>
rbdock ($Id: //depot/dev/client3/rdock/2013.1/src/exe/rbdock.cxx#4 $)

>  <Rbt.Library>
libRbt.so (2013.1, Build901 2013/11/27)

>  <Rbt.Parameter_File>
/home/malgorzata/Desktop/rDock_2013.1_src/data/scripts/soft_docking.prm

>  <Rbt.Receptor>
cavity.prm

>  <SCORE>
-26.5768

>  <SCORE.INTER>
-20.2723

>  <SCORE.INTER.CONST>
1

>  <SCORE.INTER.POLAR>
-1.20585

>  <SCORE.INTER.REPUL>
0

>  <SCORE.INTER.ROT>
3

>  <SCORE.INTER.VDW>
-24.5724

>  <SCORE.INTER.norm>
-1.12624

>  <SCORE.INTRA>
1.76041

>  <SCORE.INTRA.DIHEDRAL>
10.3317

>  <SCORE.INTRA.DIHEDRAL.0>
5.47211

>  <SCORE.INTRA.POLAR>
0

>  <SCORE.INTRA.POLAR.0>
0

>  <SCORE.INTRA.REPUL>
0

>  <SCORE.INTRA.REPUL.0>
0

>  <SCORE.INTRA.VDW>
-0.30592

>  <SCORE.INTRA.VDW.0>
0.722234

>  <SCORE.INTRA.norm>
0.0978007

>  <SCORE.RESTR>
0.523909

>  <SCORE.RESTR.CAVITY>
0.523909

>  <SCORE.RESTR.norm>
0.0291061

>  <SCORE.SYSTEM>
-8.58885

>  <SCORE.SYSTEM.CONST>
0

>  <SCORE.SYSTEM.DIHEDRAL>
3.61056

>  <SCORE.SYSTEM.POLAR>
-3.10022

>  <SCORE.SYSTEM.REPUL>
0.855274

>  <SCORE.SYSTEM.VDW>
-4.12976

>  <SCORE.SYSTEM.norm>
-0.477159

>  <SCORE.heavy>
18

>  <SCORE.norm>
-1.47649

$$$$
FLP.pdb
  rDOCK(R)          3D
libRbt.so/2013.1/901 2013/11/27
 19 20  0  0  0  0  0  0  0  0999 V2000
   19.2074   23.5408   17.8413 C   0  0  0  0  0  0
   20.3817   22.7627   17.9447 C   0  0  0  0  0  0
   20.5123   21.5990   17.1937 C   0  0  0  0  0  0
   19.4732   21.2164   16.3437 C   0  0  0  0  0  0
   18.3060   21.9978   16.2454 C   0  0  0  0  0  0
   18.1780   23.1608   16.9979 C   0  0  0  0  0  0
   21.7489   20.7345   17.3162 C   0  0  0  0  0  0
   22.8901   20.9612   16.5091 C   0  0  0  0  0  0
   24.0475   20.1392   16.6666 C   0  0  0  0  0  0
   24.0362   19.0882   17.6472 C   0  0  0  0  0  0
   22.9103   18.8842   18.4357 C   0  0  0  0  0  0
   21.7751   19.6857   18.2792 C   0  0  0  0  0  0
   25.1983   18.1259   17.7835 C   0  0  0  0  0  0
   26.5161   18.8880   17.9021 C   0  0  0  0  0  0
   25.2147   17.2281   16.5469 C   0  0  0  0  0  0
   24.1803   16.8365   16.0654 O   0  0  0  0  0  0
   26.3459   16.8480   16.0141 O   0  0  0  0  0  0
   20.6839   19.4399   19.0521 F   0  0  0  0  0  0
   26.3490   16.3990   15.1917 H   0  0  0  0  0  0
  1  2  2  0  0  0
  2  3  1  0  0  0
  3  7  1  0  0  0
  4  3  2  0  0  0
  5  4  1  0  0  0
  6  5  2  0  0  0
  6  1  1  0  0  0
  7  8  2  0  0  0
  7 12  1  0  0  0
  8  9  1  0  0  0
  9 10  2  0  0  0
 10 13  1  0  0  0
 11 10  1  0  0  0
 12 11  2  0  0  0
 13 14  1  0  0  0
 15 17  1  0  0  0
 15 13  1  0  0  0
 16 15  2  0  0  0
 17 19  1  0  0  0
 18 12  1  0  0  0
M  END
>  <CHROM.0>
44.60222226,-164.22557802,-16.12225913,-59.60230710,175.98637780,-58.42121376
29.16265812

>  <CHROM.1>
-88.71116391,51.14727649,-171.50822919,-38.45413250,22.38786395,19.95264801
17.27360729,-2.68284183,0.46813847,-2.31623570

>  <FORMUL>
      FLP    C15 H13 F1 O2

>  <HET>
 FLP  A 701      18

>  <HETNAM>
     FLP FLURBIPROFEN

>  <Name>
FLP.pdb

>  <RI>
0

>  <Rbt.Current_Directory>
/home/malgorzata/Desktop/rDOCK_IFD/test4

>  <Rbt.Executable>
rbdock ($Id: //depot/dev/client3/rdock/2013.1/src/exe/rbdock.cxx#4 $)

>  <Rbt.Library>
libRbt.so (2013.1, Build901 2013/11/27)

>  <Rbt.Parameter_File>
/home/malgorzata/Desktop/rDock_2013.1_src/data/scripts/soft_docking.prm

>  <Rbt.Receptor>
cavity.prm

>  <SCORE>
-32.2421

>  <SCORE.INTER>
-22.6284

>  <SCORE.INTER.CONST>
1

>  <SCORE.INTER.POLAR>
-2.50802

>  <SCORE.INTER.REPUL>
0.228704

>  <SCORE.INTER.ROT>
3

>  <SCORE.INTER.VDW>
-23.6447

>  <SCORE.INTER.norm>
-1.25714

>  <SCORE.INTRA>
-0.491504

>  <SCORE.INTRA.DIHEDRAL>
2.67601

>  <SCORE.INTRA.DIHEDRAL.0>
5.47211

>  <SCORE.INTRA.POLAR>
0

>  <SCORE.INTRA.POLAR.0>
0

>  <SCORE.INTRA.REPUL>
0

>  <SCORE.INTRA.REPUL.0>
0

>  <SCORE.INTRA.VDW>
-1.02671

>  <SCORE.INTRA.VDW.0>
0.722234

>  <SCORE.INTRA.norm>
-0.0273058

>  <SCORE.RESTR>
0.107428

>  <SCORE.RESTR.CAVITY>
0.107428

>  <SCORE.RESTR.norm>
0.00596822

>  <SCORE.SYSTEM>
-9.22961

>  <SCORE.SYSTEM.CONST>
0

>  <SCORE.SYSTEM.DIHEDRAL>
8.12318

>  <SCORE.SYSTEM.POLAR>
-3.53188

>  <SCORE.SYSTEM.REPUL>
0.64611

>  <SCORE.SYSTEM.VDW>
-4.51335

>  <SCORE.SYSTEM.norm>
-0.512756

>  <SCORE.heavy>
18

>  <SCORE.norm>
-1.79123

$$$$
FLP.pdb
  rDOCK(R)          3D
libRbt.so/2013.1/901 2013/11/27
 19 20  0  0  0  0  0  0  0  0999 V2000
   28.5934   25.0781   15.1920 C   0  0  0  0  0  0
   27.6009   24.1204   15.4966 C   0  0  0  0  0  0
   26.3244   24.5351   15.8627 C   0  0  0  0  0  0
   26.0430   25.9011   15.9233 C   0  0  0  0  0  0
   27.0375   26.8497   15.6172 C   0  0  0  0  0  0
   28.3131   26.4321   15.2519 C   0  0  0  0  0  0
   25.2574   23.5243   16.2252 C   0  0  0  0  0  0
   24.8387   23.3427   17.5656 C   0  0  0  0  0  0
   23.8140   22.3949   17.8686 C   0  0  0  0  0  0
   23.2202   21.6354   16.8024 C   0  0  0  0  0  0
   23.6382   21.8314   15.4917 C   0  0  0  0  0  0
   24.6444   22.7561   15.1946 C   0  0  0  0  0  0
   22.2033   20.5478   17.0819 C   0  0  0  0  0  0
   20.8933   21.1525   17.5814 C   0  0  0  0  0  0
   22.7916   19.6121   18.1373 C   0  0  0  0  0  0
   23.9339   19.7464   18.5009 O   0  0  0  0  0  0
   22.0779   18.6375   18.6361 O   0  0  0  0  0  0
   25.0438   22.9024   13.9033 F   0  0  0  0  0  0
   22.3148   18.2570   19.4590 H   0  0  0  0  0  0
  1  2  2  0  0  0
  2  3  1  0  0  0
  3  7  1  0  0  0
  4  3  2  0  0  0
  5  4  1  0  0  0
  6  5  2  0  0  0
  6  1  1  0  0  0
  7  8  2  0  0  0
  7 12  1  0  0  0
  8  9  1  0  0  0
  9 10  2  0  0  0
 10 13  1  0  0  0
 11 10  1  0  0  0
 12 11  2  0  0  0
 13 14  1  0  0  0
 15 17  1  0  0  0
 15 13  1  0  0  0
 16 15  2  0  0  0
 17 19  1  0  0  0
 18 12  1  0  0  0
M  END
>  <CHROM.0>
121.73926184,174.98092775,-1.05616417,139.58944282,58.38561667,-74.49784166
66.61511309

>  <CHROM.1>
107.12674837,69.47346227,-159.43205911,-6.69686157,24.71997149,22.72207577
16.47364726,-0.63531093,0.67379558,1.99873781

>  <FORMUL>
      FLP    C15 H13 F1 O2

>  <HET>
 FLP  A 701      18

>  <HETNAM>
     FLP FLURBIPROFEN

>  <Name>
FLP.pdb

>  <RI>
0

>  <Rbt.Current_Directory>
/home/malgorzata/Desktop/rDOCK_IFD/test4

>  <Rbt.Executable>
rbdock ($Id: //depot/dev/client3/rdock/2013.1/src/exe/rbdock.cxx#4 $)

>  <Rbt.Library>
libRbt.so (2013.1, Build901 2013/11/27)

>  <Rbt.Parameter_File>
/home/malgorzata/Desktop/rDock_2013.1_src/data/scripts/soft_docking.prm

>  <Rbt.Receptor>
cavity.prm

>  <SCORE>
-25.6139

>  <SCORE.INTER>
-18.8093

>  <SCORE.INTER.CONST>
1

>  <SCORE.INTER.POLAR>
-0.768795

>  <SCORE.INTER.REPUL>
0

>  <SCORE.INTER.ROT>
3

>  <SCORE.INTER.VDW>
-24.5954

>  <SCORE.INTER.norm>
-1.04496

>  <SCORE.INTRA>
-0.342848

>  <SCORE.INTRA.DIHEDRAL>
3.5196

>  <SCORE.INTRA.DIHEDRAL.0>
5.47211

>  <SCORE.INTRA.POLAR>
0

>  <SCORE.INTRA.POLAR.0>
0

>  <SCORE.INTRA.REPUL>
0

>  <SCORE.INTRA.REPUL.0>
0

>  <SCORE.INTRA.VDW>
-1.04677

>  <SCORE.INTRA.VDW.0>
0.722234

>  <SCORE.INTRA.norm>
-0.0190471

>  <SCORE.RESTR>
0

>  <SCORE.RESTR.CAVITY>
0

>  <SCORE.RESTR.norm>
0

>  <SCORE.SYSTEM>
-6.46177

>  <SCORE.SYSTEM.CONST>
0

>  <SCORE.SYSTEM.DIHEDRAL>
8.71937

>  <SCORE.SYSTEM.POLAR>
-2.50848

>  <SCORE.SYSTEM.REPUL>
0.64611

>  <SCORE.SYSTEM.VDW>
-5.52318

>  <SCORE.SYSTEM.norm>
-0.358987

>  <SCORE.heavy>
18

>  <SCORE.norm>
-1.423

$$$$
