S58.pdb
  rDOCK(R)          3D
libRbt.so/2013.1/901 2013/11/27
 28 30  0  0  0  0  0  0  0  0999 V2000
   21.5343   27.6208   26.8090 C   0  0  0  0  0  0
   22.6861   28.3471   26.8212 C   0  0  0  0  0  0
   21.9380   26.2015   27.0278 C   0  0  0  0  0  0
   21.0796   24.9721   27.0116 C   0  0  0  0  0  0
   25.0193   27.8034   27.4501 C   0  0  0  0  0  0
   26.0472   27.6363   26.5135 C   0  0  0  0  0  0
   27.3448   27.9888   26.8537 C   0  0  0  0  0  0
   27.6114   28.5148   28.1387 C   0  0  0  0  0  0
   26.5777   28.6822   29.0754 C   0  0  0  0  0  0
   25.2737   28.3209   28.7277 C   0  0  0  0  0  0
   22.7617   29.8205   26.5791 C   0  0  0  0  0  0
   24.0293   30.4477   26.4754 C   0  0  0  0  0  0
   24.1207   31.8007   26.0993 C   0  0  0  0  0  0
   22.9632   32.5237   25.8235 C   0  0  0  0  0  0
   21.7079   31.9196   25.9535 C   0  0  0  0  0  0
   21.6034   30.5602   26.3317 C   0  0  0  0  0  0
   23.7452   27.4975   27.0470 N   0  0  0  0  0  0
   23.2336   26.1696   27.1825 N   0  0  0  0  0  0
   30.4098   28.1121   27.5433 N   0  0  0  0  0  0
   29.5296   28.6928   29.9703 O   0  0  0  0  0  0
   29.4450   30.4082   28.3772 O   0  0  0  0  0  0
   23.1038   34.2275   25.1271 Br  0  0  0  0  0  0
   21.8053   23.9231   26.5501 F   0  0  0  0  0  0
   19.9864   25.1875   26.2632 F   0  0  0  0  0  0
   20.7041   24.7158   28.2697 F   0  0  0  0  0  0
   29.3118   28.9944   28.5908 S   0  0  0  0  0  0
   31.3089   28.4594   27.3809 H   0  0  0  0  0  0
   30.1238   27.2721   27.1241 H   0  0  0  0  0  0
  1  3  1  0  0  0
  2  1  2  0  0  0
  2 17  1  0  0  0
  3 18  2  0  0  0
  3  4  1  0  0  0
  4 23  1  0  0  0
  4 25  1  0  0  0
  5 17  1  0  0  0
  5  6  2  0  0  0
  7  6  1  0  0  0
  8  7  2  0  0  0
  9 10  2  0  0  0
  9  8  1  0  0  0
 10  5  1  0  0  0
 11  2  1  0  0  0
 12 11  1  0  0  0
 13 12  2  0  0  0
 14 15  2  0  0  0
 14 13  1  0  0  0
 15 16  1  0  0  0
 16 11  2  0  0  0
 17 18  1  0  0  0
 19 28  1  0  0  0
 20 26  2  0  0  0
 22 14  1  0  0  0
 24  4  1  0  0  0
 26  8  1  0  0  0
 26 19  1  0  0  0
 26 21  2  0  0  0
 27 19  1  0  0  0
M  END
>  <CHROM.0>
120.06493087,-47.87509290,-60.84831168,176.44369047,-178.33328202,179.85312526

>  <CHROM.1>
147.77485016,-110.39447353,-173.32281147,-22.56001202,156.63119971,24.36876090
29.23165791,26.95507273,1.92033386,0.27835824,2.88878903

>  <FORMUL>
      S58    C16 H11 Br1 F3 N3 O2 S1

>  <HET>
 S58  A 701      28

>  <HETNAM>
     S58 1-PHENYLSULFONAMIDE-3-TRIFLUOROMETHYL-5-PARABROMOPHENYL
   2 S58 PYRAZOLE

>  <Name>
S58.pdb

>  <RI>
1.51419e+07

>  <Rbt.Current_Directory>
/home/malgorzata/Desktop/rDOCK_IFD/Wyniki/3_COX2/IFD

>  <Rbt.Executable>
rbdock ($Id: //depot/dev/client3/rdock/2013.1/src/exe/rbdock.cxx#4 $)

>  <Rbt.Library>
libRbt.so (2013.1, Build901 2013/11/27)

>  <Rbt.Parameter_File>
/home/malgorzata/Desktop/rDock_2013.1_src/data/scripts/dock.prm

>  <Rbt.Receptor>
cavity.prm

>  <SCORE>
-23.5004

>  <SCORE.INTER>
-12.4232

>  <SCORE.INTER.CONST>
1

>  <SCORE.INTER.POLAR>
-0.938083

>  <SCORE.INTER.REPUL>
0

>  <SCORE.INTER.ROT>
5

>  <SCORE.INTER.VDW>
-19.6337

>  <SCORE.INTER.norm>
-0.477816

>  <SCORE.INTRA>
-1.67747

>  <SCORE.INTRA.DIHEDRAL>
-3.09452

>  <SCORE.INTRA.DIHEDRAL.0>
18.1022

>  <SCORE.INTRA.POLAR>
0

>  <SCORE.INTRA.POLAR.0>
0

>  <SCORE.INTRA.REPUL>
0

>  <SCORE.INTRA.REPUL.0>
0

>  <SCORE.INTRA.VDW>
-0.130212

>  <SCORE.INTRA.VDW.0>
-2.81782

>  <SCORE.INTRA.norm>
-0.0645181

>  <SCORE.RESTR>
0

>  <SCORE.RESTR.CAVITY>
0

>  <SCORE.RESTR.norm>
0

>  <SCORE.SYSTEM>
-9.39973

>  <SCORE.SYSTEM.CONST>
0

>  <SCORE.SYSTEM.DIHEDRAL>
0.856944

>  <SCORE.SYSTEM.POLAR>
-2.49191

>  <SCORE.SYSTEM.VDW>
-1.3557

>  <SCORE.SYSTEM.norm>
-0.361528

>  <SCORE.heavy>
26

>  <SCORE.norm>
-0.903862

$$$$
S58.pdb
  rDOCK(R)          3D
libRbt.so/2013.1/901 2013/11/27
 28 30  0  0  0  0  0  0  0  0999 V2000
   24.4758   26.8564   27.2691 C   0  0  0  0  0  0
   24.9673   28.1187   27.4084 C   0  0  0  0  0  0
   22.9899   26.9884   27.2722 C   0  0  0  0  0  0
   21.9548   25.9039   27.2425 C   0  0  0  0  0  0
   23.9203   30.3607   27.2979 C   0  0  0  0  0  0
   24.4023   31.1444   28.3540 C   0  0  0  0  0  0
   24.4855   32.5203   28.2005 C   0  0  0  0  0  0
   24.0866   33.1122   26.9800 C   0  0  0  0  0  0
   23.6047   32.3230   25.9223 C   0  0  0  0  0  0
   23.5191   30.9382   26.0852 C   0  0  0  0  0  0
   26.4198   28.4558   27.5152 C   0  0  0  0  0  0
   26.8258   29.8143   27.4912 C   0  0  0  0  0  0
   28.1678   30.1563   27.7410 C   0  0  0  0  0  0
   29.0982   29.1581   28.0174 C   0  0  0  0  0  0
   28.7108   27.8136   28.0127 C   0  0  0  0  0  0
   27.3646   27.4575   27.7620 C   0  0  0  0  0  0
   23.9132   29.0014   27.4754 N   0  0  0  0  0  0
   22.6974   28.2563   27.3743 N   0  0  0  0  0  0
   24.8127   35.5962   28.2647 N   0  0  0  0  0  0
   22.9158   35.4337   26.4270 O   0  0  0  0  0  0
   25.1248   35.1771   25.6908 O   0  0  0  0  0  0
   30.8010   29.6297   28.5521 Br  0  0  0  0  0  0
   21.1844   25.9872   28.3559 F   0  0  0  0  0  0
   22.5508   24.7056   27.1394 F   0  0  0  0  0  0
   21.1823   26.1015   26.1684 F   0  0  0  0  0  0
   24.2055   34.9191   26.7634 S   0  0  0  0  0  0
   24.2763   35.5284   29.0790 H   0  0  0  0  0  0
   25.6884   36.0388   28.2879 H   0  0  0  0  0  0
  1  3  1  0  0  0
  2  1  2  0  0  0
  2 17  1  0  0  0
  3 18  2  0  0  0
  3  4  1  0  0  0
  4 23  1  0  0  0
  4 25  1  0  0  0
  5 17  1  0  0  0
  5  6  2  0  0  0
  7  6  1  0  0  0
  8  7  2  0  0  0
  9 10  2  0  0  0
  9  8  1  0  0  0
 10  5  1  0  0  0
 11  2  1  0  0  0
 12 11  1  0  0  0
 13 12  2  0  0  0
 14 15  2  0  0  0
 14 13  1  0  0  0
 15 16  1  0  0  0
 16 11  2  0  0  0
 17 18  1  0  0  0
 19 28  1  0  0  0
 20 26  2  0  0  0
 22 14  1  0  0  0
 24  4  1  0  0  0
 26  8  1  0  0  0
 26 19  1  0  0  0
 26 21  2  0  0  0
 27 19  1  0  0  0
M  END
>  <CHROM.0>
-165.35583773,81.63656975,177.36580871,175.17825577,58.23469083,62.43718921

>  <CHROM.1>
119.76604927,-77.06722457,172.23972505,-1.28093964,-64.69073710,25.51899860
29.97987437,27.48121637,-2.45805318,-0.17981686,-0.08157390

>  <FORMUL>
      S58    C16 H11 Br1 F3 N3 O2 S1

>  <HET>
 S58  A 701      28

>  <HETNAM>
     S58 1-PHENYLSULFONAMIDE-3-TRIFLUOROMETHYL-5-PARABROMOPHENYL
   2 S58 PYRAZOLE

>  <Name>
S58.pdb

>  <RI>
1.51419e+07

>  <Rbt.Current_Directory>
/home/malgorzata/Desktop/rDOCK_IFD/Wyniki/3_COX2/IFD

>  <Rbt.Executable>
rbdock ($Id: //depot/dev/client3/rdock/2013.1/src/exe/rbdock.cxx#4 $)

>  <Rbt.Library>
libRbt.so (2013.1, Build901 2013/11/27)

>  <Rbt.Parameter_File>
/home/malgorzata/Desktop/rDock_2013.1_src/data/scripts/dock.prm

>  <Rbt.Receptor>
cavity.prm

>  <SCORE>
-20.2748

>  <SCORE.INTER>
-9.08053

>  <SCORE.INTER.CONST>
1

>  <SCORE.INTER.POLAR>
-0.491043

>  <SCORE.INTER.REPUL>
0

>  <SCORE.INTER.ROT>
5

>  <SCORE.INTER.VDW>
-17.811

>  <SCORE.INTER.norm>
-0.349251

>  <SCORE.INTRA>
-1.20785

>  <SCORE.INTRA.DIHEDRAL>
-3.50754

>  <SCORE.INTRA.DIHEDRAL.0>
18.1022

>  <SCORE.INTRA.POLAR>
0

>  <SCORE.INTRA.POLAR.0>
0

>  <SCORE.INTRA.REPUL>
0

>  <SCORE.INTRA.REPUL.0>
0

>  <SCORE.INTRA.VDW>
0.54592

>  <SCORE.INTRA.VDW.0>
-2.81782

>  <SCORE.INTRA.norm>
-0.0464558

>  <SCORE.RESTR>
0

>  <SCORE.RESTR.CAVITY>
0

>  <SCORE.RESTR.norm>
0

>  <SCORE.SYSTEM>
-9.98644

>  <SCORE.SYSTEM.CONST>
0

>  <SCORE.SYSTEM.DIHEDRAL>
0.932837

>  <SCORE.SYSTEM.POLAR>
-2.57369

>  <SCORE.SYSTEM.VDW>
-1.70232

>  <SCORE.SYSTEM.norm>
-0.384094

>  <SCORE.heavy>
26

>  <SCORE.norm>
-0.779801

$$$$
S58.pdb
  rDOCK(R)          3D
libRbt.so/2013.1/901 2013/11/27
 28 30  0  0  0  0  0  0  0  0999 V2000
   26.3469   31.6358   25.9919 C   0  0  0  0  0  0
   26.3540   30.4698   26.6953 C   0  0  0  0  0  0
   27.6328   32.3204   26.3131 C   0  0  0  0  0  0
   28.1005   33.6796   25.8862 C   0  0  0  0  0  0
   28.1114   29.2757   27.9683 C   0  0  0  0  0  0
   27.4286   28.6738   29.0329 C   0  0  0  0  0  0
   27.9401   27.5192   29.6065 C   0  0  0  0  0  0
   29.1406   26.9640   29.1068 C   0  0  0  0  0  0
   29.8223   27.5697   28.0380 C   0  0  0  0  0  0
   29.3040   28.7350   27.4679 C   0  0  0  0  0  0
   25.2269   29.4879   26.7198 C   0  0  0  0  0  0
   25.4894   28.1302   27.0344 C   0  0  0  0  0  0
   24.4253   27.2260   27.2096 C   0  0  0  0  0  0
   23.1113   27.6672   27.0784 C   0  0  0  0  0  0
   22.8461   28.9983   26.7382 C   0  0  0  0  0  0
   23.9076   29.9163   26.5588 C   0  0  0  0  0  0
   27.5354   30.3801   27.3957 N   0  0  0  0  0  0
   28.3100   31.5495   27.1197 N   0  0  0  0  0  0
   29.7077   24.1704   28.6357 N   0  0  0  0  0  0
   29.0666   25.1207   31.0206 O   0  0  0  0  0  0
   31.1852   25.6827   30.1939 O   0  0  0  0  0  0
   21.7256   26.5297   27.5185 Br  0  0  0  0  0  0
   28.5455   33.6203   24.6062 F   0  0  0  0  0  0
   29.0531   34.1192   26.7235 F   0  0  0  0  0  0
   27.0538   34.5108   25.9404 F   0  0  0  0  0  0
   29.8138   25.4383   29.8449 S   0  0  0  0  0  0
   28.9104   23.6065   28.5932 H   0  0  0  0  0  0
   30.4443   24.0292   28.0027 H   0  0  0  0  0  0
  1  3  1  0  0  0
  2  1  2  0  0  0
  2 17  1  0  0  0
  3 18  2  0  0  0
  3  4  1  0  0  0
  4 23  1  0  0  0
  4 25  1  0  0  0
  5 17  1  0  0  0
  5  6  2  0  0  0
  7  6  1  0  0  0
  8  7  2  0  0  0
  9 10  2  0  0  0
  9  8  1  0  0  0
 10  5  1  0  0  0
 11  2  1  0  0  0
 12 11  1  0  0  0
 13 12  2  0  0  0
 14 15  2  0  0  0
 14 13  1  0  0  0
 15 16  1  0  0  0
 16 11  2  0  0  0
 17 18  1  0  0  0
 19 28  1  0  0  0
 20 26  2  0  0  0
 22 14  1  0  0  0
 24  4  1  0  0  0
 26  8  1  0  0  0
 26 19  1  0  0  0
 26 21  2  0  0  0
 27 19  1  0  0  0
M  END
>  <CHROM.0>
-74.50325510,82.18505405,58.09847873,173.67312350,56.65697636,58.33693957

>  <CHROM.1>
-78.49504038,-65.20007621,156.21284962,113.13807863,-90.94100351,26.59663541
28.75037983,27.62765467,1.16096415,-0.21156314,-0.40500582

>  <FORMUL>
      S58    C16 H11 Br1 F3 N3 O2 S1

>  <HET>
 S58  A 701      28

>  <HETNAM>
     S58 1-PHENYLSULFONAMIDE-3-TRIFLUOROMETHYL-5-PARABROMOPHENYL
   2 S58 PYRAZOLE

>  <Name>
S58.pdb

>  <RI>
1.51419e+07

>  <Rbt.Current_Directory>
/home/malgorzata/Desktop/rDOCK_IFD/Wyniki/3_COX2/IFD

>  <Rbt.Executable>
rbdock ($Id: //depot/dev/client3/rdock/2013.1/src/exe/rbdock.cxx#4 $)

>  <Rbt.Library>
libRbt.so (2013.1, Build901 2013/11/27)

>  <Rbt.Parameter_File>
/home/malgorzata/Desktop/rDock_2013.1_src/data/scripts/dock.prm

>  <Rbt.Receptor>
cavity.prm

>  <SCORE>
-27.8158

>  <SCORE.INTER>
-17.1866

>  <SCORE.INTER.CONST>
1

>  <SCORE.INTER.POLAR>
-1.42052

>  <SCORE.INTER.REPUL>
0.223697

>  <SCORE.INTER.ROT>
5

>  <SCORE.INTER.VDW>
-23.8754

>  <SCORE.INTER.norm>
-0.661024

>  <SCORE.INTRA>
-0.811831

>  <SCORE.INTRA.DIHEDRAL>
-3.30457

>  <SCORE.INTRA.DIHEDRAL.0>
18.1022

>  <SCORE.INTRA.POLAR>
0

>  <SCORE.INTRA.POLAR.0>
0

>  <SCORE.INTRA.REPUL>
0

>  <SCORE.INTRA.REPUL.0>
0

>  <SCORE.INTRA.VDW>
0.840453

>  <SCORE.INTRA.VDW.0>
-2.81782

>  <SCORE.INTRA.norm>
-0.0312243

>  <SCORE.RESTR>
0.236987

>  <SCORE.RESTR.CAVITY>
0.236987

>  <SCORE.RESTR.norm>
0.0091149

>  <SCORE.SYSTEM>
-10.0544

>  <SCORE.SYSTEM.CONST>
0

>  <SCORE.SYSTEM.DIHEDRAL>
1.01789

>  <SCORE.SYSTEM.POLAR>
-2.59909

>  <SCORE.SYSTEM.VDW>
-1.72642

>  <SCORE.SYSTEM.norm>
-0.386707

>  <SCORE.heavy>
26

>  <SCORE.norm>
-1.06984

$$$$
S58.pdb
  rDOCK(R)          3D
libRbt.so/2013.1/901 2013/11/27
 28 30  0  0  0  0  0  0  0  0999 V2000
   21.2972   27.5679   26.6977 C   0  0  0  0  0  0
   22.3938   28.3727   26.6341 C   0  0  0  0  0  0
   21.8036   26.2040   27.0276 C   0  0  0  0  0  0
   21.0358   24.9197   27.1248 C   0  0  0  0  0  0
   24.7648   28.0505   27.2742 C   0  0  0  0  0  0
   25.8290   27.1610   27.0789 C   0  0  0  0  0  0
   27.1221   27.5689   27.3706 C   0  0  0  0  0  0
   27.3487   28.8771   27.8570 C   0  0  0  0  0  0
   26.2791   29.7672   28.0505 C   0  0  0  0  0  0
   24.9786   29.3483   27.7591 C   0  0  0  0  0  0
   22.3614   29.8223   26.2701 C   0  0  0  0  0  0
   21.3132   30.6426   26.7593 C   0  0  0  0  0  0
   21.3484   32.0342   26.5525 C   0  0  0  0  0  0
   22.4181   32.6072   25.8700 C   0  0  0  0  0  0
   23.4403   31.8004   25.3582 C   0  0  0  0  0  0
   23.4153   30.4001   25.5591 C   0  0  0  0  0  0
   23.5130   27.6223   26.9151 N   0  0  0  0  0  0
   23.0993   26.2773   27.1669 N   0  0  0  0  0  0
   30.1521   28.2752   27.5010 N   0  0  0  0  0  0
   29.2109   29.5039   29.6473 O   0  0  0  0  0  0
   29.2278   30.7291   27.6507 O   0  0  0  0  0  0
   22.5619   34.4459   25.7911 Br  0  0  0  0  0  0
   21.7764   23.9123   26.5989 F   0  0  0  0  0  0
   19.8539   25.0453   26.5012 F   0  0  0  0  0  0
   20.8213   24.6656   28.4205 F   0  0  0  0  0  0
   29.0468   29.4276   28.2300 S   0  0  0  0  0  0
   31.1053   28.3169   27.7130 H   0  0  0  0  0  0
   29.8148   27.5898   26.8849 H   0  0  0  0  0  0
  1  3  1  0  0  0
  2  1  2  0  0  0
  2 17  1  0  0  0
  3 18  2  0  0  0
  3  4  1  0  0  0
  4 23  1  0  0  0
  4 25  1  0  0  0
  5 17  1  0  0  0
  5  6  2  0  0  0
  7  6  1  0  0  0
  8  7  2  0  0  0
  9 10  2  0  0  0
  9  8  1  0  0  0
 10  5  1  0  0  0
 11  2  1  0  0  0
 12 11  1  0  0  0
 13 12  2  0  0  0
 14 15  2  0  0  0
 14 13  1  0  0  0
 15 16  1  0  0  0
 16 11  2  0  0  0
 17 18  1  0  0  0
 19 28  1  0  0  0
 20 26  2  0  0  0
 22 14  1  0  0  0
 24  4  1  0  0  0
 26  8  1  0  0  0
 26 19  1  0  0  0
 26 21  2  0  0  0
 27 19  1  0  0  0
M  END
>  <CHROM.0>
-148.02606670,92.56614607,179.21942476,174.71248756,64.54062417,-60.69389201

>  <CHROM.1>
140.83906692,-159.31453011,40.01015816,14.20538430,-170.03684712,24.06499251
29.40299701,26.95367880,1.89973882,0.21792865,2.97284107

>  <FORMUL>
      S58    C16 H11 Br1 F3 N3 O2 S1

>  <HET>
 S58  A 701      28

>  <HETNAM>
     S58 1-PHENYLSULFONAMIDE-3-TRIFLUOROMETHYL-5-PARABROMOPHENYL
   2 S58 PYRAZOLE

>  <Name>
S58.pdb

>  <RI>
1.51419e+07

>  <Rbt.Current_Directory>
/home/malgorzata/Desktop/rDOCK_IFD/Wyniki/3_COX2/IFD

>  <Rbt.Executable>
rbdock ($Id: //depot/dev/client3/rdock/2013.1/src/exe/rbdock.cxx#4 $)

>  <Rbt.Library>
libRbt.so (2013.1, Build901 2013/11/27)

>  <Rbt.Parameter_File>
/home/malgorzata/Desktop/rDock_2013.1_src/data/scripts/dock.prm

>  <Rbt.Receptor>
cavity.prm

>  <SCORE>
-26.6009

>  <SCORE.INTER>
-13.7192

>  <SCORE.INTER.CONST>
1

>  <SCORE.INTER.POLAR>
-1.73808

>  <SCORE.INTER.REPUL>
0

>  <SCORE.INTER.ROT>
5

>  <SCORE.INTER.VDW>
-18.2097

>  <SCORE.INTER.norm>
-0.527662

>  <SCORE.INTRA>
-2.94907

>  <SCORE.INTRA.DIHEDRAL>
-7.46309

>  <SCORE.INTRA.DIHEDRAL.0>
18.1022

>  <SCORE.INTRA.POLAR>
0

>  <SCORE.INTRA.POLAR.0>
0

>  <SCORE.INTRA.REPUL>
0

>  <SCORE.INTRA.REPUL.0>
0

>  <SCORE.INTRA.VDW>
0.782478

>  <SCORE.INTRA.VDW.0>
-2.81782

>  <SCORE.INTRA.norm>
-0.113426

>  <SCORE.RESTR>
0

>  <SCORE.RESTR.CAVITY>
0

>  <SCORE.RESTR.norm>
0

>  <SCORE.SYSTEM>
-9.93262

>  <SCORE.SYSTEM.CONST>
0

>  <SCORE.SYSTEM.DIHEDRAL>
0.969081

>  <SCORE.SYSTEM.POLAR>
-2.57369

>  <SCORE.SYSTEM.VDW>
-1.66663

>  <SCORE.SYSTEM.norm>
-0.382024

>  <SCORE.heavy>
26

>  <SCORE.norm>
-1.02311

$$$$
S58.pdb
  rDOCK(R)          3D
libRbt.so/2013.1/901 2013/11/27
 28 30  0  0  0  0  0  0  0  0999 V2000
   24.8122   31.9645   26.2907 C   0  0  0  0  0  0
   26.0313   31.5324   26.7166 C   0  0  0  0  0  0
   23.9915   30.7381   26.0727 C   0  0  0  0  0  0
   22.6035   30.6285   25.5159 C   0  0  0  0  0  0
   26.8765   29.3255   27.4586 C   0  0  0  0  0  0
   26.4158   28.7349   28.6421 C   0  0  0  0  0  0
   27.2290   27.8384   29.3193 C   0  0  0  0  0  0
   28.5093   27.5304   28.8043 C   0  0  0  0  0  0
   28.9678   28.1239   27.6162 C   0  0  0  0  0  0
   28.1453   29.0294   26.9416 C   0  0  0  0  0  0
   27.1954   32.4260   27.0014 C   0  0  0  0  0  0
   26.9804   33.8147   27.1921 C   0  0  0  0  0  0
   28.0385   34.6439   27.6083 C   0  0  0  0  0  0
   29.2985   34.0981   27.8383 C   0  0  0  0  0  0
   29.5251   32.7343   27.6228 C   0  0  0  0  0  0
   28.4693   31.8908   27.2034 C   0  0  0  0  0  0
   26.0138   30.1582   26.7939 N   0  0  0  0  0  0
   24.7185   29.7032   26.3954 N   0  0  0  0  0  0
   30.0946   25.1321   28.5168 N   0  0  0  0  0  0
   28.8489   25.7664   30.7636 O   0  0  0  0  0  0
   30.7152   27.0603   30.1886 O   0  0  0  0  0  0
   30.6185   35.1496   28.5864 Br  0  0  0  0  0  0
   21.9815   31.8295   25.6196 F   0  0  0  0  0  0
   21.9283   29.6623   26.1579 F   0  0  0  0  0  0
   22.7037   30.3055   24.2217 F   0  0  0  0  0  0
   29.5805   26.3422   29.6798 S   0  0  0  0  0  0
   29.5843   25.0038   27.6931 H   0  0  0  0  0  0
   30.8925   24.5878   28.6910 H   0  0  0  0  0  0
  1  3  1  0  0  0
  2  1  2  0  0  0
  2 17  1  0  0  0
  3 18  2  0  0  0
  3  4  1  0  0  0
  4 23  1  0  0  0
  4 25  1  0  0  0
  5 17  1  0  0  0
  5  6  2  0  0  0
  7  6  1  0  0  0
  8  7  2  0  0  0
  9 10  2  0  0  0
  9  8  1  0  0  0
 10  5  1  0  0  0
 11  2  1  0  0  0
 12 11  1  0  0  0
 13 12  2  0  0  0
 14 15  2  0  0  0
 14 13  1  0  0  0
 15 16  1  0  0  0
 16 11  2  0  0  0
 17 18  1  0  0  0
 19 28  1  0  0  0
 20 26  2  0  0  0
 22 14  1  0  0  0
 24  4  1  0  0  0
 26  8  1  0  0  0
 26 19  1  0  0  0
 26 21  2  0  0  0
 27 19  1  0  0  0
M  END
>  <CHROM.0>
118.12075254,-46.30707758,178.45536960,176.59727296,57.88729876,179.46244019

>  <CHROM.1>
-19.92175110,105.53028238,17.38605129,127.73188493,-20.30680104,27.47147260
30.72296114,27.71007928,2.33650542,0.43804304,2.96496387

>  <FORMUL>
      S58    C16 H11 Br1 F3 N3 O2 S1

>  <HET>
 S58  A 701      28

>  <HETNAM>
     S58 1-PHENYLSULFONAMIDE-3-TRIFLUOROMETHYL-5-PARABROMOPHENYL
   2 S58 PYRAZOLE

>  <Name>
S58.pdb

>  <RI>
1.51419e+07

>  <Rbt.Current_Directory>
/home/malgorzata/Desktop/rDOCK_IFD/Wyniki/3_COX2/IFD

>  <Rbt.Executable>
rbdock ($Id: //depot/dev/client3/rdock/2013.1/src/exe/rbdock.cxx#4 $)

>  <Rbt.Library>
libRbt.so (2013.1, Build901 2013/11/27)

>  <Rbt.Parameter_File>
/home/malgorzata/Desktop/rDock_2013.1_src/data/scripts/dock.prm

>  <Rbt.Receptor>
cavity.prm

>  <SCORE>
-22.3169

>  <SCORE.INTER>
-11.4918

>  <SCORE.INTER.CONST>
1

>  <SCORE.INTER.POLAR>
0

>  <SCORE.INTER.REPUL>
0

>  <SCORE.INTER.ROT>
5

>  <SCORE.INTER.VDW>
-21.8918

>  <SCORE.INTER.norm>
-0.441991

>  <SCORE.INTRA>
-1.14333

>  <SCORE.INTRA.DIHEDRAL>
-3.67719

>  <SCORE.INTRA.DIHEDRAL.0>
18.1022

>  <SCORE.INTRA.POLAR>
0

>  <SCORE.INTRA.POLAR.0>
0

>  <SCORE.INTRA.REPUL>
0

>  <SCORE.INTRA.REPUL.0>
0

>  <SCORE.INTRA.VDW>
0.695262

>  <SCORE.INTRA.VDW.0>
-2.81782

>  <SCORE.INTRA.norm>
-0.0439744

>  <SCORE.RESTR>
0

>  <SCORE.RESTR.CAVITY>
0

>  <SCORE.RESTR.norm>
0

>  <SCORE.SYSTEM>
-9.68181

>  <SCORE.SYSTEM.CONST>
0

>  <SCORE.SYSTEM.DIHEDRAL>
0.858961

>  <SCORE.SYSTEM.POLAR>
-2.57369

>  <SCORE.SYSTEM.VDW>
-1.36075

>  <SCORE.SYSTEM.norm>
-0.372377

>  <SCORE.heavy>
26

>  <SCORE.norm>
-0.858343

$$$$
S58.pdb
  rDOCK(R)          3D
libRbt.so/2013.1/901 2013/11/27
 28 30  0  0  0  0  0  0  0  0999 V2000
   28.2629   31.9391   27.2850 C   0  0  0  0  0  0
   27.7986   30.6676   27.4340 C   0  0  0  0  0  0
   27.1447   32.7195   26.6801 C   0  0  0  0  0  0
   27.1427   34.1462   26.2186 C   0  0  0  0  0  0
   25.5453   29.6583   27.2367 C   0  0  0  0  0  0
   25.5781   29.0237   28.4848 C   0  0  0  0  0  0
   24.6016   28.0913   28.8026 C   0  0  0  0  0  0
   23.5853   27.7972   27.8646 C   0  0  0  0  0  0
   23.5548   28.4365   26.6139 C   0  0  0  0  0  0
   24.5440   29.3712   26.2985 C   0  0  0  0  0  0
   28.6101   29.5242   27.9527 C   0  0  0  0  0  0
   29.7663   29.7842   28.7316 C   0  0  0  0  0  0
   30.4544   28.7250   29.3521 C   0  0  0  0  0  0
   29.9954   27.4188   29.2047 C   0  0  0  0  0  0
   28.8731   27.1520   28.4129 C   0  0  0  0  0  0
   28.1737   28.2086   27.7834 C   0  0  0  0  0  0
   26.4960   30.6153   26.9923 N   0  0  0  0  0  0
   26.1227   31.9195   26.5417 N   0  0  0  0  0  0
   22.7503   25.0476   27.5642 N   0  0  0  0  0  0
   21.0354   27.0515   27.7776 O   0  0  0  0  0  0
   22.2275   26.4709   29.7087 O   0  0  0  0  0  0
   30.7749   26.0679   30.1921 Br  0  0  0  0  0  0
   25.8640   34.5926   26.1435 F   0  0  0  0  0  0
   27.7738   34.2458   25.0382 F   0  0  0  0  0  0
   27.8003   34.8739   27.1283 F   0  0  0  0  0  0
   22.2889   26.5832   28.2785 S   0  0  0  0  0  0
   23.5649   24.9879   27.0274 H   0  0  0  0  0  0
   22.1946   24.2510   27.7050 H   0  0  0  0  0  0
  1  3  1  0  0  0
  2  1  2  0  0  0
  2 17  1  0  0  0
  3 18  2  0  0  0
  3  4  1  0  0  0
  4 23  1  0  0  0
  4 25  1  0  0  0
  5 17  1  0  0  0
  5  6  2  0  0  0
  7  6  1  0  0  0
  8  7  2  0  0  0
  9 10  2  0  0  0
  9  8  1  0  0  0
 10  5  1  0  0  0
 11  2  1  0  0  0
 12 11  1  0  0  0
 13 12  2  0  0  0
 14 15  2  0  0  0
 14 13  1  0  0  0
 15 16  1  0  0  0
 16 11  2  0  0  0
 17 18  1  0  0  0
 19 28  1  0  0  0
 20 26  2  0  0  0
 22 14  1  0  0  0
 24  4  1  0  0  0
 26  8  1  0  0  0
 26 19  1  0  0  0
 26 21  2  0  0  0
 27 19  1  0  0  0
M  END
>  <CHROM.0>
-99.42513467,101.14927819,-179.72486026,-59.69179326,60.56394258,179.99901049

>  <CHROM.1>
-160.34099274,33.50210386,21.12348609,-97.77576697,-2.24937082,26.82150609
29.08336242,28.03101919,-1.83436797,0.19760668,2.75968419

>  <FORMUL>
      S58    C16 H11 Br1 F3 N3 O2 S1

>  <HET>
 S58  A 701      28

>  <HETNAM>
     S58 1-PHENYLSULFONAMIDE-3-TRIFLUOROMETHYL-5-PARABROMOPHENYL
   2 S58 PYRAZOLE

>  <Name>
S58.pdb

>  <RI>
1.51419e+07

>  <Rbt.Current_Directory>
/home/malgorzata/Desktop/rDOCK_IFD/Wyniki/3_COX2/IFD

>  <Rbt.Executable>
rbdock ($Id: //depot/dev/client3/rdock/2013.1/src/exe/rbdock.cxx#4 $)

>  <Rbt.Library>
libRbt.so (2013.1, Build901 2013/11/27)

>  <Rbt.Parameter_File>
/home/malgorzata/Desktop/rDock_2013.1_src/data/scripts/dock.prm

>  <Rbt.Receptor>
cavity.prm

>  <SCORE>
-6.43639

>  <SCORE.INTER>
-10.1817

>  <SCORE.INTER.CONST>
1

>  <SCORE.INTER.POLAR>
0

>  <SCORE.INTER.REPUL>
0.0976414

>  <SCORE.INTER.ROT>
5

>  <SCORE.INTER.VDW>
-21.0699

>  <SCORE.INTER.norm>
-0.391604

>  <SCORE.INTRA>
-2.56078

>  <SCORE.INTRA.DIHEDRAL>
-8.08634

>  <SCORE.INTRA.DIHEDRAL.0>
18.1022

>  <SCORE.INTRA.POLAR>
0

>  <SCORE.INTRA.POLAR.0>
0

>  <SCORE.INTRA.REPUL>
0

>  <SCORE.INTRA.REPUL.0>
0

>  <SCORE.INTRA.VDW>
1.48239

>  <SCORE.INTRA.VDW.0>
-2.81782

>  <SCORE.INTRA.norm>
-0.0984916

>  <SCORE.RESTR>
0

>  <SCORE.RESTR.CAVITY>
0

>  <SCORE.RESTR.norm>
0

>  <SCORE.SYSTEM>
6.30611

>  <SCORE.SYSTEM.CONST>
0

>  <SCORE.SYSTEM.DIHEDRAL>
0.78385

>  <SCORE.SYSTEM.POLAR>
-2.16046

>  <SCORE.SYSTEM.VDW>
13.2597

>  <SCORE.SYSTEM.norm>
0.242543

>  <SCORE.heavy>
26

>  <SCORE.norm>
-0.247553

$$$$
S58.pdb
  rDOCK(R)          3D
libRbt.so/2013.1/901 2013/11/27
 28 30  0  0  0  0  0  0  0  0999 V2000
   25.4288   31.6977   26.3940 C   0  0  0  0  0  0
   25.6412   30.4933   26.9928 C   0  0  0  0  0  0
   26.5705   32.5682   26.7992 C   0  0  0  0  0  0
   26.7897   34.0215   26.5019 C   0  0  0  0  0  0
   27.5785   29.5211   28.1914 C   0  0  0  0  0  0
   27.1100   28.8578   29.3326 C   0  0  0  0  0  0
   27.8136   27.7697   29.8270 C   0  0  0  0  0  0
   28.9911   27.3429   29.1709 C   0  0  0  0  0  0
   29.4576   28.0098   28.0257 C   0  0  0  0  0  0
   28.7465   29.1080   27.5356 C   0  0  0  0  0  0
   24.7075   29.3288   26.9092 C   0  0  0  0  0  0
   25.1877   28.0258   27.1966 C   0  0  0  0  0  0
   24.2929   26.9421   27.2699 C   0  0  0  0  0  0
   22.9318   27.1512   27.0646 C   0  0  0  0  0  0
   22.4551   28.4287   26.7506 C   0  0  0  0  0  0
   23.3453   29.5257   26.6733 C   0  0  0  0  0  0
   26.8169   30.5526   27.7061 N   0  0  0  0  0  0
   27.3713   31.8607   27.5487 N   0  0  0  0  0  0
   31.1024   26.4989   30.9535 N   0  0  0  0  0  0
   30.5269   25.2233   28.7077 O   0  0  0  0  0  0
   28.9819   25.0306   30.4580 O   0  0  0  0  0  0
   21.7465   25.7700   27.3728 Br  0  0  0  0  0  0
   27.2802   34.6373   27.6066 F   0  0  0  0  0  0
   25.6421   34.5819   26.0890 F   0  0  0  0  0  0
   27.6960   34.1089   25.5218 F   0  0  0  0  0  0
   29.9156   25.9045   29.8049 S   0  0  0  0  0  0
   32.0414   26.2462   30.8550 H   0  0  0  0  0  0
   30.8254   27.0849   31.6906 H   0  0  0  0  0  0
  1  3  1  0  0  0
  2  1  2  0  0  0
  2 17  1  0  0  0
  3 18  2  0  0  0
  3  4  1  0  0  0
  4 23  1  0  0  0
  4 25  1  0  0  0
  5 17  1  0  0  0
  5  6  2  0  0  0
  7  6  1  0  0  0
  8  7  2  0  0  0
  9 10  2  0  0  0
  9  8  1  0  0  0
 10  5  1  0  0  0
 11  2  1  0  0  0
 12 11  1  0  0  0
 13 12  2  0  0  0
 14 15  2  0  0  0
 14 13  1  0  0  0
 15 16  1  0  0  0
 16 11  2  0  0  0
 17 18  1  0  0  0
 19 28  1  0  0  0
 20 26  2  0  0  0
 22 14  1  0  0  0
 24  4  1  0  0  0
 26  8  1  0  0  0
 26 19  1  0  0  0
 26 21  2  0  0  0
 27 19  1  0  0  0
M  END
>  <CHROM.0>
89.68162220,87.99608749,178.44332143,174.23508755,-62.39762292,-57.72935068

>  <CHROM.1>
138.94186624,-75.71582873,160.38834400,-90.40952944,-127.65985007,26.18159943
28.78915819,27.80636777,1.28641402,-0.29821433,-0.28872418

>  <FORMUL>
      S58    C16 H11 Br1 F3 N3 O2 S1

>  <HET>
 S58  A 701      28

>  <HETNAM>
     S58 1-PHENYLSULFONAMIDE-3-TRIFLUOROMETHYL-5-PARABROMOPHENYL
   2 S58 PYRAZOLE

>  <Name>
S58.pdb

>  <RI>
1.51419e+07

>  <Rbt.Current_Directory>
/home/malgorzata/Desktop/rDOCK_IFD/Wyniki/3_COX2/IFD

>  <Rbt.Executable>
rbdock ($Id: //depot/dev/client3/rdock/2013.1/src/exe/rbdock.cxx#4 $)

>  <Rbt.Library>
libRbt.so (2013.1, Build901 2013/11/27)

>  <Rbt.Parameter_File>
/home/malgorzata/Desktop/rDock_2013.1_src/data/scripts/dock.prm

>  <Rbt.Receptor>
cavity.prm

>  <SCORE>
-23.5634

>  <SCORE.INTER>
-12.3941

>  <SCORE.INTER.CONST>
1

>  <SCORE.INTER.POLAR>
0

>  <SCORE.INTER.REPUL>
0.0219809

>  <SCORE.INTER.ROT>
5

>  <SCORE.INTER.VDW>
-22.904

>  <SCORE.INTER.norm>
-0.476695

>  <SCORE.INTRA>
-0.929128

>  <SCORE.INTRA.DIHEDRAL>
-2.21659

>  <SCORE.INTRA.DIHEDRAL.0>
18.1022

>  <SCORE.INTRA.POLAR>
0

>  <SCORE.INTRA.POLAR.0>
0

>  <SCORE.INTRA.REPUL>
0

>  <SCORE.INTRA.REPUL.0>
0

>  <SCORE.INTRA.VDW>
0.179165

>  <SCORE.INTRA.VDW.0>
-2.81782

>  <SCORE.INTRA.norm>
-0.0357357

>  <SCORE.RESTR>
0.0032885

>  <SCORE.RESTR.CAVITY>
0.0032885

>  <SCORE.RESTR.norm>
0.000126481

>  <SCORE.SYSTEM>
-10.2435

>  <SCORE.SYSTEM.CONST>
0

>  <SCORE.SYSTEM.DIHEDRAL>
0.97346

>  <SCORE.SYSTEM.POLAR>
-2.57369

>  <SCORE.SYSTEM.VDW>
-1.97968

>  <SCORE.SYSTEM.norm>
-0.39398

>  <SCORE.heavy>
26

>  <SCORE.norm>
-0.906284

$$$$
S58.pdb
  rDOCK(R)          3D
libRbt.so/2013.1/901 2013/11/27
 28 30  0  0  0  0  0  0  0  0999 V2000
   28.6686   32.0448   27.3030 C   0  0  0  0  0  0
   28.1578   30.7937   27.4706 C   0  0  0  0  0  0
   27.7363   32.7518   26.3777 C   0  0  0  0  0  0
   27.8691   34.1221   25.7835 C   0  0  0  0  0  0
   25.9922   29.7577   26.8604 C   0  0  0  0  0  0
   26.3498   28.4104   26.7243 C   0  0  0  0  0  0
   25.3853   27.4278   26.8909 C   0  0  0  0  0  0
   24.0563   27.7990   27.1992 C   0  0  0  0  0  0
   23.7013   29.1515   27.3362 C   0  0  0  0  0  0
   24.6768   30.1363   27.1626 C   0  0  0  0  0  0
   28.8047   29.7152   28.2789 C   0  0  0  0  0  0
   27.9952   28.7651   28.9520 C   0  0  0  0  0  0
   28.5853   27.6588   29.5909 C   0  0  0  0  0  0
   29.9675   27.4943   29.5575 C   0  0  0  0  0  0
   30.7744   28.4440   28.9213 C   0  0  0  0  0  0
   30.1926   29.5608   28.2763 C   0  0  0  0  0  0
   26.9921   30.6887   26.7462 N   0  0  0  0  0  0
   26.7588   31.9365   26.0889 N   0  0  0  0  0  0
   22.1960   26.6422   29.0830 N   0  0  0  0  0  0
   23.3605   25.2337   27.1693 O   0  0  0  0  0  0
   21.7204   26.7681   26.5031 O   0  0  0  0  0  0
   30.7104   25.9357   30.2107 Br  0  0  0  0  0  0
   28.6452   34.8885   26.5900 F   0  0  0  0  0  0
   26.6535   34.6625   25.6044 F   0  0  0  0  0  0
   28.4719   33.9990   24.5957 F   0  0  0  0  0  0
   22.7838   26.5139   27.4341 S   0  0  0  0  0  0
   22.1369   25.8414   29.6403 H   0  0  0  0  0  0
   21.9300   27.5145   29.4457 H   0  0  0  0  0  0
  1  3  1  0  0  0
  2  1  2  0  0  0
  2 17  1  0  0  0
  3 18  2  0  0  0
  3  4  1  0  0  0
  4 23  1  0  0  0
  4 25  1  0  0  0
  5 17  1  0  0  0
  5  6  2  0  0  0
  7  6  1  0  0  0
  8  7  2  0  0  0
  9 10  2  0  0  0
  9  8  1  0  0  0
 10  5  1  0  0  0
 11  2  1  0  0  0
 12 11  1  0  0  0
 13 12  2  0  0  0
 14 15  2  0  0  0
 14 13  1  0  0  0
 15 16  1  0  0  0
 16 11  2  0  0  0
 17 18  1  0  0  0
 19 28  1  0  0  0
 20 26  2  0  0  0
 22 14  1  0  0  0
 24  4  1  0  0  0
 26  8  1  0  0  0
 26 19  1  0  0  0
 26 21  2  0  0  0
 27 19  1  0  0  0
M  END
>  <CHROM.0>
97.66328653,-46.66596709,179.17746030,175.94421598,178.72115503,64.12796598

>  <CHROM.1>
-25.58104088,-56.87531110,148.12446757,117.98735211,-130.97691684,27.17218560
29.09431258,27.76146079,-1.56510005,0.28413489,2.72874819

>  <FORMUL>
      S58    C16 H11 Br1 F3 N3 O2 S1

>  <HET>
 S58  A 701      28

>  <HETNAM>
     S58 1-PHENYLSULFONAMIDE-3-TRIFLUOROMETHYL-5-PARABROMOPHENYL
   2 S58 PYRAZOLE

>  <Name>
S58.pdb

>  <RI>
1.51419e+07

>  <Rbt.Current_Directory>
/home/malgorzata/Desktop/rDOCK_IFD/Wyniki/3_COX2/IFD

>  <Rbt.Executable>
rbdock ($Id: //depot/dev/client3/rdock/2013.1/src/exe/rbdock.cxx#4 $)

>  <Rbt.Library>
libRbt.so (2013.1, Build901 2013/11/27)

>  <Rbt.Parameter_File>
/home/malgorzata/Desktop/rDock_2013.1_src/data/scripts/dock.prm

>  <Rbt.Receptor>
cavity.prm

>  <SCORE>
-24.0617

>  <SCORE.INTER>
-13.7493

>  <SCORE.INTER.CONST>
1

>  <SCORE.INTER.POLAR>
-0.342943

>  <SCORE.INTER.REPUL>
0

>  <SCORE.INTER.ROT>
5

>  <SCORE.INTER.VDW>
-22.9833

>  <SCORE.INTER.norm>
-0.528821

>  <SCORE.INTRA>
-0.571416

>  <SCORE.INTRA.DIHEDRAL>
-3.26077

>  <SCORE.INTRA.DIHEDRAL.0>
18.1022

>  <SCORE.INTRA.POLAR>
0

>  <SCORE.INTRA.POLAR.0>
0

>  <SCORE.INTRA.REPUL>
0

>  <SCORE.INTRA.REPUL.0>
0

>  <SCORE.INTRA.VDW>
1.05897

>  <SCORE.INTRA.VDW.0>
-2.81782

>  <SCORE.INTRA.norm>
-0.0219775

>  <SCORE.RESTR>
0.00432567

>  <SCORE.RESTR.CAVITY>
0.00432567

>  <SCORE.RESTR.norm>
0.000166372

>  <SCORE.SYSTEM>
-9.74526

>  <SCORE.SYSTEM.CONST>
0

>  <SCORE.SYSTEM.DIHEDRAL>
0.913402

>  <SCORE.SYSTEM.POLAR>
-2.57369

>  <SCORE.SYSTEM.VDW>
-1.45143

>  <SCORE.SYSTEM.norm>
-0.374818

>  <SCORE.heavy>
26

>  <SCORE.norm>
-0.92545

$$$$
S58.pdb
  rDOCK(R)          3D
libRbt.so/2013.1/901 2013/11/27
 28 30  0  0  0  0  0  0  0  0999 V2000
   22.6010   28.5591   27.1126 C   0  0  0  0  0  0
   23.6752   29.3934   27.1769 C   0  0  0  0  0  0
   23.1252   27.1883   27.3797 C   0  0  0  0  0  0
   22.3909   25.8816   27.3373 C   0  0  0  0  0  0
   26.0092   29.0857   27.9470 C   0  0  0  0  0  0
   27.1379   28.8019   27.1678 C   0  0  0  0  0  0
   28.3801   29.2702   27.5693 C   0  0  0  0  0  0
   28.4895   30.0300   28.7567 C   0  0  0  0  0  0
   27.3550   30.3139   29.5353 C   0  0  0  0  0  0
   26.1075   29.8353   29.1275 C   0  0  0  0  0  0
   23.6234   30.8640   26.9127 C   0  0  0  0  0  0
   24.7630   31.6634   27.1833 C   0  0  0  0  0  0
   24.7842   33.0177   26.8015 C   0  0  0  0  0  0
   23.6848   33.5725   26.1517 C   0  0  0  0  0  0
   22.5454   32.7976   25.9089 C   0  0  0  0  0  0
   22.5122   31.4351   26.2890 C   0  0  0  0  0  0
   24.7958   28.6531   27.4779 N   0  0  0  0  0  0
   24.4067   27.2837   27.6083 N   0  0  0  0  0  0
   31.1872   29.2842   29.4735 N   0  0  0  0  0  0
   29.9593   31.3885   30.5061 O   0  0  0  0  0  0
   30.6057   31.5394   28.2595 O   0  0  0  0  0  0
   23.8052   35.2827   25.4672 Br  0  0  0  0  0  0
   23.2739   24.8769   27.1115 F   0  0  0  0  0  0
   21.4356   25.9244   26.3954 F   0  0  0  0  0  0
   21.8189   25.6921   28.5316 F   0  0  0  0  0  0
   30.1163   30.6622   29.2857 S   0  0  0  0  0  0
   31.3618   28.6984   28.7108 H   0  0  0  0  0  0
   31.6114   29.1033   30.3399 H   0  0  0  0  0  0
  1  3  1  0  0  0
  2  1  2  0  0  0
  2 17  1  0  0  0
  3 18  2  0  0  0
  3  4  1  0  0  0
  4 23  1  0  0  0
  4 25  1  0  0  0
  5 17  1  0  0  0
  5  6  2  0  0  0
  7  6  1  0  0  0
  8  7  2  0  0  0
  9 10  2  0  0  0
  9  8  1  0  0  0
 10  5  1  0  0  0
 11  2  1  0  0  0
 12 11  1  0  0  0
 13 12  2  0  0  0
 14 15  2  0  0  0
 14 13  1  0  0  0
 15 16  1  0  0  0
 16 11  2  0  0  0
 17 18  1  0  0  0
 19 28  1  0  0  0
 20 26  2  0  0  0
 22 14  1  0  0  0
 24  4  1  0  0  0
 26  8  1  0  0  0
 26 19  1  0  0  0
 26 21  2  0  0  0
 27 19  1  0  0  0
M  END
>  <CHROM.0>
-54.28554613,97.90512583,61.80778238,-63.25890357,176.95461234,60.83561143

>  <CHROM.1>
155.82640334,-120.93590445,171.54247347,-58.12904452,59.08870079,25.29714968
30.42734595,27.40744035,1.91446084,0.36164260,2.90269574

>  <FORMUL>
      S58    C16 H11 Br1 F3 N3 O2 S1

>  <HET>
 S58  A 701      28

>  <HETNAM>
     S58 1-PHENYLSULFONAMIDE-3-TRIFLUOROMETHYL-5-PARABROMOPHENYL
   2 S58 PYRAZOLE

>  <Name>
S58.pdb

>  <RI>
1.51419e+07

>  <Rbt.Current_Directory>
/home/malgorzata/Desktop/rDOCK_IFD/Wyniki/3_COX2/IFD

>  <Rbt.Executable>
rbdock ($Id: //depot/dev/client3/rdock/2013.1/src/exe/rbdock.cxx#4 $)

>  <Rbt.Library>
libRbt.so (2013.1, Build901 2013/11/27)

>  <Rbt.Parameter_File>
/home/malgorzata/Desktop/rDock_2013.1_src/data/scripts/dock.prm

>  <Rbt.Receptor>
cavity.prm

>  <SCORE>
-5.80361

>  <SCORE.INTER>
-10.8252

>  <SCORE.INTER.CONST>
1

>  <SCORE.INTER.POLAR>
-1.33469

>  <SCORE.INTER.REPUL>
0

>  <SCORE.INTER.ROT>
5

>  <SCORE.INTER.VDW>
-16.6873

>  <SCORE.INTER.norm>
-0.416356

>  <SCORE.INTRA>
-1.52329

>  <SCORE.INTRA.DIHEDRAL>
-3.77127

>  <SCORE.INTRA.DIHEDRAL.0>
18.1022

>  <SCORE.INTRA.POLAR>
0

>  <SCORE.INTRA.POLAR.0>
0

>  <SCORE.INTRA.REPUL>
0

>  <SCORE.INTRA.REPUL.0>
0

>  <SCORE.INTRA.VDW>
0.36235

>  <SCORE.INTRA.VDW.0>
-2.81782

>  <SCORE.INTRA.norm>
-0.058588

>  <SCORE.RESTR>
0

>  <SCORE.RESTR.CAVITY>
0

>  <SCORE.RESTR.norm>
0

>  <SCORE.SYSTEM>
6.54492

>  <SCORE.SYSTEM.CONST>
0

>  <SCORE.SYSTEM.DIHEDRAL>
0.865406

>  <SCORE.SYSTEM.POLAR>
-2.14403

>  <SCORE.SYSTEM.VDW>
13.4019

>  <SCORE.SYSTEM.norm>
0.251728

>  <SCORE.heavy>
26

>  <SCORE.norm>
-0.223216

$$$$
S58.pdb
  rDOCK(R)          3D
libRbt.so/2013.1/901 2013/11/27
 28 30  0  0  0  0  0  0  0  0999 V2000
   24.1742   27.8475   28.7837 C   0  0  0  0  0  0
   25.2960   28.6193   28.7893 C   0  0  0  0  0  0
   23.0458   28.7603   28.4391 C   0  0  0  0  0  0
   21.5785   28.4552   28.3874 C   0  0  0  0  0  0
   25.7574   30.9343   28.0388 C   0  0  0  0  0  0
   27.1071   30.8823   28.4094 C   0  0  0  0  0  0
   27.9774   31.8632   27.9578 C   0  0  0  0  0  0
   27.4916   32.8993   27.1273 C   0  0  0  0  0  0
   26.1373   32.9477   26.7566 C   0  0  0  0  0  0
   25.2652   31.9590   27.2187 C   0  0  0  0  0  0
   26.6620   28.1267   29.1447 C   0  0  0  0  0  0
   27.1350   28.2755   30.4733 C   0  0  0  0  0  0
   28.3523   27.6855   30.8613 C   0  0  0  0  0  0
   29.0914   26.9494   29.9391 C   0  0  0  0  0  0
   28.6458   26.8242   28.6187 C   0  0  0  0  0  0
   27.4240   27.4137   28.2168 C   0  0  0  0  0  0
   24.9494   29.9101   28.4602 N   0  0  0  0  0  0
   23.5379   29.9523   28.2376 N   0  0  0  0  0  0
   28.1535   34.5838   24.8752 N   0  0  0  0  0  0
   29.9695   33.6905   26.5800 O   0  0  0  0  0  0
   28.4987   35.3347   27.3682 O   0  0  0  0  0  0
   30.5709   26.0051   30.5110 Br  0  0  0  0  0  0
   21.4001   27.1110   28.3493 F   0  0  0  0  0  0
   21.0228   29.0603   27.3260 F   0  0  0  0  0  0
   21.0193   28.9325   29.5049 F   0  0  0  0  0  0
   28.6308   34.1858   26.5169 S   0  0  0  0  0  0
   27.2709   34.3190   24.5493 H   0  0  0  0  0  0
   28.7688   35.0725   24.2871 H   0  0  0  0  0  0
  1  3  1  0  0  0
  2  1  2  0  0  0
  2 17  1  0  0  0
  3 18  2  0  0  0
  3  4  1  0  0  0
  4 23  1  0  0  0
  4 25  1  0  0  0
  5 17  1  0  0  0
  5  6  2  0  0  0
  7  6  1  0  0  0
  8  7  2  0  0  0
  9 10  2  0  0  0
  9  8  1  0  0  0
 10  5  1  0  0  0
 11  2  1  0  0  0
 12 11  1  0  0  0
 13 12  2  0  0  0
 14 15  2  0  0  0
 14 13  1  0  0  0
 15 16  1  0  0  0
 16 11  2  0  0  0
 17 18  1  0  0  0
 19 28  1  0  0  0
 20 26  2  0  0  0
 22 14  1  0  0  0
 24  4  1  0  0  0
 26  8  1  0  0  0
 26 19  1  0  0  0
 26 21  2  0  0  0
 27 19  1  0  0  0
M  END
>  <CHROM.0>
-68.03806494,87.73868102,179.01889120,175.76510255,-58.89758256,-57.95889673

>  <CHROM.1>
-16.56289955,-25.05957558,-94.69065096,142.77806509,16.36375358,26.74301820
29.59437803,28.48595179,1.14693376,0.09537253,2.70603149

>  <FORMUL>
      S58    C16 H11 Br1 F3 N3 O2 S1

>  <HET>
 S58  A 701      28

>  <HETNAM>
     S58 1-PHENYLSULFONAMIDE-3-TRIFLUOROMETHYL-5-PARABROMOPHENYL
   2 S58 PYRAZOLE

>  <Name>
S58.pdb

>  <RI>
1.51419e+07

>  <Rbt.Current_Directory>
/home/malgorzata/Desktop/rDOCK_IFD/Wyniki/3_COX2/IFD

>  <Rbt.Executable>
rbdock ($Id: //depot/dev/client3/rdock/2013.1/src/exe/rbdock.cxx#4 $)

>  <Rbt.Library>
libRbt.so (2013.1, Build901 2013/11/27)

>  <Rbt.Parameter_File>
/home/malgorzata/Desktop/rDock_2013.1_src/data/scripts/dock.prm

>  <Rbt.Receptor>
cavity.prm

>  <SCORE>
-17.0159

>  <SCORE.INTER>
-6.84609

>  <SCORE.INTER.CONST>
1

>  <SCORE.INTER.POLAR>
-1.17314

>  <SCORE.INTER.REPUL>
0.0176163

>  <SCORE.INTER.ROT>
5

>  <SCORE.INTER.VDW>
-13.3455

>  <SCORE.INTER.norm>
-0.263311

>  <SCORE.INTRA>
-0.243762

>  <SCORE.INTRA.DIHEDRAL>
-1.06157

>  <SCORE.INTRA.DIHEDRAL.0>
18.1022

>  <SCORE.INTRA.POLAR>
0

>  <SCORE.INTRA.POLAR.0>
0

>  <SCORE.INTRA.REPUL>
0

>  <SCORE.INTRA.REPUL.0>
0

>  <SCORE.INTRA.VDW>
0.287021

>  <SCORE.INTRA.VDW.0>
-2.81782

>  <SCORE.INTRA.norm>
-0.00937547

>  <SCORE.RESTR>
0

>  <SCORE.RESTR.CAVITY>
0

>  <SCORE.RESTR.norm>
0

>  <SCORE.SYSTEM>
-9.92603

>  <SCORE.SYSTEM.CONST>
0

>  <SCORE.SYSTEM.DIHEDRAL>
0.881852

>  <SCORE.SYSTEM.POLAR>
-2.57369

>  <SCORE.SYSTEM.VDW>
-1.61642

>  <SCORE.SYSTEM.norm>
-0.38177

>  <SCORE.heavy>
26

>  <SCORE.norm>
-0.654457

$$$$
