S58.pdb
  rDOCK(R)          3D
libRbt.so/2013.1/901 2013/11/27
 28 30  0  0  0  0  0  0  0  0999 V2000
   23.3555   28.1458   27.0754 C   0  0  0  0  0  0
   24.5635   28.7667   27.1725 C   0  0  0  0  0  0
   23.5566   26.7648   27.6025 C   0  0  0  0  0  0
   22.5806   25.6271   27.6406 C   0  0  0  0  0  0
   26.6864   28.1649   28.2980 C   0  0  0  0  0  0
   27.8300   27.8377   27.5585 C   0  0  0  0  0  0
   29.0829   28.1484   28.0656 C   0  0  0  0  0  0
   29.1886   28.7940   29.3191 C   0  0  0  0  0  0
   28.0392   29.1219   30.0576 C   0  0  0  0  0  0
   26.7805   28.8020   29.5431 C   0  0  0  0  0  0
   24.8420   30.1577   26.7007 C   0  0  0  0  0  0
   23.8382   30.8716   25.9980 C   0  0  0  0  0  0
   24.0271   32.2293   25.6796 C   0  0  0  0  0  0
   25.2007   32.8744   26.0603 C   0  0  0  0  0  0
   26.2079   32.1682   26.7270 C   0  0  0  0  0  0
   26.0298   30.8026   27.0517 C   0  0  0  0  0  0
   25.4695   27.8922   27.7284 N   0  0  0  0  0  0
   24.7975   26.6586   27.9931 N   0  0  0  0  0  0
   31.3057   30.7600   29.2932 N   0  0  0  0  0  0
   31.7518   28.1775   29.6594 O   0  0  0  0  0  0
   30.7132   29.3297   31.4148 O   0  0  0  0  0  0
   25.3472   34.6999   25.8284 Br  0  0  0  0  0  0
   21.6818   25.7721   26.6349 F   0  0  0  0  0  0
   21.9804   25.5795   28.8402 F   0  0  0  0  0  0
   23.2631   24.4929   27.4482 F   0  0  0  0  0  0
   30.8310   29.2195   29.9879 S   0  0  0  0  0  0
   31.7304   31.4358   29.8572 H   0  0  0  0  0  0
   31.1479   30.9418   28.3417 H   0  0  0  0  0  0
  1  3  1  0  0  0
  2  1  2  0  0  0
  2 17  1  0  0  0
  3 18  2  0  0  0
  3  4  1  0  0  0
  4 23  1  0  0  0
  4 25  1  0  0  0
  5 17  1  0  0  0
  5  6  2  0  0  0
  7  6  1  0  0  0
  8  7  2  0  0  0
  9 10  2  0  0  0
  9  8  1  0  0  0
 10  5  1  0  0  0
 11  2  1  0  0  0
 12 11  1  0  0  0
 13 12  2  0  0  0
 14 15  2  0  0  0
 14 13  1  0  0  0
 15 16  1  0  0  0
 16 11  2  0  0  0
 17 18  1  0  0  0
 19 28  1  0  0  0
 20 26  2  0  0  0
 22 14  1  0  0  0
 24  4  1  0  0  0
 26  8  1  0  0  0
 26 19  1  0  0  0
 26 21  2  0  0  0
 27 19  1  0  0  0
M  END
>  <CHROM.0>
-94.70932257,-75.23286927,-168.45152794,174.71876718,58.42230531

>  <CHROM.1>
27.05635886,-105.53191181,-5.64299268,84.35586626,137.90276310,26.16054897
29.65879109,27.71677163,2.13171978,0.39411041,2.82049732

>  <FORMUL>
      S58    C16 H11 Br1 F3 N3 O2 S1

>  <HET>
 S58  A 701      28

>  <HETNAM>
     S58 1-PHENYLSULFONAMIDE-3-TRIFLUOROMETHYL-5-PARABROMOPHENYL
   2 S58 PYRAZOLE

>  <Name>
S58.pdb

>  <RI>
3.61151e+07

>  <Rbt.Current_Directory>
/home/malgorzata/Desktop/rDOCK_IFD/Wyniki/3_COX2/IFD

>  <Rbt.Executable>
rbdock ($Id: //depot/dev/client3/rdock/2013.1/src/exe/rbdock.cxx#4 $)

>  <Rbt.Library>
libRbt.so (2013.1, Build901 2013/11/27)

>  <Rbt.Parameter_File>
/home/malgorzata/Desktop/rDock_2013.1_src/data/scripts/dock.prm

>  <Rbt.Receptor>
cavity.prm

>  <SCORE>
-26.7851

>  <SCORE.INTER>
-17.6338

>  <SCORE.INTER.CONST>
1

>  <SCORE.INTER.POLAR>
-1.69065

>  <SCORE.INTER.REPUL>
0

>  <SCORE.INTER.ROT>
5

>  <SCORE.INTER.VDW>
-22.2856

>  <SCORE.INTER.norm>
-0.678224

>  <SCORE.INTRA>
-1.22755

>  <SCORE.INTRA.DIHEDRAL>
-2.40748

>  <SCORE.INTRA.DIHEDRAL.0>
18.1022

>  <SCORE.INTRA.POLAR>
0

>  <SCORE.INTRA.POLAR.0>
0

>  <SCORE.INTRA.REPUL>
0

>  <SCORE.INTRA.REPUL.0>
0

>  <SCORE.INTRA.VDW>
-0.0238083

>  <SCORE.INTRA.VDW.0>
-2.81782

>  <SCORE.INTRA.norm>
-0.0472133

>  <SCORE.RESTR>
0

>  <SCORE.RESTR.CAVITY>
0

>  <SCORE.RESTR.norm>
0

>  <SCORE.SYSTEM>
-7.92372

>  <SCORE.SYSTEM.CONST>
0

>  <SCORE.SYSTEM.DIHEDRAL>
1.263

>  <SCORE.SYSTEM.POLAR>
-2.45023

>  <SCORE.SYSTEM.REPUL>
0.00382593

>  <SCORE.SYSTEM.VDW>
-0.243587

>  <SCORE.SYSTEM.norm>
-0.304759

>  <SCORE.heavy>
26

>  <SCORE.norm>
-1.0302

$$$$
S58.pdb
  rDOCK(R)          3D
libRbt.so/2013.1/901 2013/11/27
 28 30  0  0  0  0  0  0  0  0999 V2000
   28.6230   28.5381   29.8321 C   0  0  0  0  0  0
   27.6689   29.0801   29.0257 C   0  0  0  0  0  0
   29.8148   29.4280   29.7187 C   0  0  0  0  0  0
   31.1761   29.2490   30.3214 C   0  0  0  0  0  0
   27.4902   31.2488   27.8424 C   0  0  0  0  0  0
   28.2418   32.3402   27.3889 C   0  0  0  0  0  0
   27.6079   33.3719   26.7127 C   0  0  0  0  0  0
   26.2136   33.3063   26.4874 C   0  0  0  0  0  0
   25.4629   32.2094   26.9427 C   0  0  0  0  0  0
   26.1070   31.1758   27.6271 C   0  0  0  0  0  0
   26.3209   28.4799   28.7857 C   0  0  0  0  0  0
   25.3284   28.5642   29.7952 C   0  0  0  0  0  0
   24.0128   28.1402   29.5311 C   0  0  0  0  0  0
   23.6839   27.6414   28.2735 C   0  0  0  0  0  0
   24.6652   27.5271   27.2827 C   0  0  0  0  0  0
   25.9915   27.9493   27.5368 C   0  0  0  0  0  0
   28.1704   30.2264   28.4520 N   0  0  0  0  0  0
   29.5079   30.4140   28.9204 N   0  0  0  0  0  0
   25.0849   35.9552   26.7259 N   0  0  0  0  0  0
   24.1573   34.1492   25.0289 O   0  0  0  0  0  0
   26.2443   35.0909   24.5335 O   0  0  0  0  0  0
   21.9166   27.2901   27.8721 Br  0  0  0  0  0  0
   32.0652   28.9478   29.3422 F   0  0  0  0  0  0
   31.1362   28.2965   31.2663 F   0  0  0  0  0  0
   31.5324   30.4087   30.8849 F   0  0  0  0  0  0
   25.3731   34.6512   25.5869 S   0  0  0  0  0  0
   25.5121   35.9345   27.6048 H   0  0  0  0  0  0
   24.4994   36.7039   26.4811 H   0  0  0  0  0  0
  1  3  1  0  0  0
  2  1  2  0  0  0
  2 17  1  0  0  0
  3 18  2  0  0  0
  3  4  1  0  0  0
  4 23  1  0  0  0
  4 25  1  0  0  0
  5 17  1  0  0  0
  5  6  2  0  0  0
  7  6  1  0  0  0
  8  7  2  0  0  0
  9 10  2  0  0  0
  9  8  1  0  0  0
 10  5  1  0  0  0
 11  2  1  0  0  0
 12 11  1  0  0  0
 13 12  2  0  0  0
 14 15  2  0  0  0
 14 13  1  0  0  0
 15 16  1  0  0  0
 16 11  2  0  0  0
 17 18  1  0  0  0
 19 28  1  0  0  0
 20 26  2  0  0  0
 22 14  1  0  0  0
 24  4  1  0  0  0
 26  8  1  0  0  0
 26 19  1  0  0  0
 26 21  2  0  0  0
 27 19  1  0  0  0
M  END
>  <CHROM.0>
63.73462348,120.94592797,-47.74955299,171.69294666,178.74704682

>  <CHROM.1>
108.93693084,177.21357902,74.87357314,-81.13773778,11.31960192,26.36252263
30.26836306,28.02953882,0.10031767,0.31493368,2.69607190

>  <FORMUL>
      S58    C16 H11 Br1 F3 N3 O2 S1

>  <HET>
 S58  A 701      28

>  <HETNAM>
     S58 1-PHENYLSULFONAMIDE-3-TRIFLUOROMETHYL-5-PARABROMOPHENYL
   2 S58 PYRAZOLE

>  <Name>
S58.pdb

>  <RI>
3.61151e+07

>  <Rbt.Current_Directory>
/home/malgorzata/Desktop/rDOCK_IFD/Wyniki/3_COX2/IFD

>  <Rbt.Executable>
rbdock ($Id: //depot/dev/client3/rdock/2013.1/src/exe/rbdock.cxx#4 $)

>  <Rbt.Library>
libRbt.so (2013.1, Build901 2013/11/27)

>  <Rbt.Parameter_File>
/home/malgorzata/Desktop/rDock_2013.1_src/data/scripts/dock.prm

>  <Rbt.Receptor>
cavity.prm

>  <SCORE>
-23.5642

>  <SCORE.INTER>
-13.7284

>  <SCORE.INTER.CONST>
1

>  <SCORE.INTER.POLAR>
-1.74472

>  <SCORE.INTER.REPUL>
0

>  <SCORE.INTER.ROT>
5

>  <SCORE.INTER.VDW>
-18.1963

>  <SCORE.INTER.norm>
-0.528014

>  <SCORE.INTRA>
-1.26095

>  <SCORE.INTRA.DIHEDRAL>
-3.09879

>  <SCORE.INTRA.DIHEDRAL.0>
18.1022

>  <SCORE.INTRA.POLAR>
0

>  <SCORE.INTRA.POLAR.0>
0

>  <SCORE.INTRA.REPUL>
0

>  <SCORE.INTRA.REPUL.0>
0

>  <SCORE.INTRA.VDW>
0.288443

>  <SCORE.INTRA.VDW.0>
-2.81782

>  <SCORE.INTRA.norm>
-0.0484982

>  <SCORE.RESTR>
0

>  <SCORE.RESTR.CAVITY>
0

>  <SCORE.RESTR.norm>
0

>  <SCORE.SYSTEM>
-8.57492

>  <SCORE.SYSTEM.CONST>
0

>  <SCORE.SYSTEM.DIHEDRAL>
1.49743

>  <SCORE.SYSTEM.POLAR>
-2.38582

>  <SCORE.SYSTEM.VDW>
-1.21185

>  <SCORE.SYSTEM.norm>
-0.329804

>  <SCORE.heavy>
26

>  <SCORE.norm>
-0.906317

$$$$
S58.pdb
  rDOCK(R)          3D
libRbt.so/2013.1/901 2013/11/27
 28 30  0  0  0  0  0  0  0  0999 V2000
   28.7112   28.5776   29.8151 C   0  0  0  0  0  0
   27.7623   29.1237   29.0054 C   0  0  0  0  0  0
   29.9043   29.4671   29.7125 C   0  0  0  0  0  0
   31.2619   29.2846   30.3225 C   0  0  0  0  0  0
   27.5922   31.2975   27.8302 C   0  0  0  0  0  0
   26.2080   31.1516   27.6738 C   0  0  0  0  0  0
   25.4710   32.1866   27.1176 C   0  0  0  0  0  0
   26.1256   33.3750   26.7200 C   0  0  0  0  0  0
   27.5141   33.5184   26.8795 C   0  0  0  0  0  0
   28.2512   32.4703   27.4362 C   0  0  0  0  0  0
   26.4153   28.5256   28.7549 C   0  0  0  0  0  0
   25.4109   28.6230   29.7513 C   0  0  0  0  0  0
   24.0972   28.2007   29.4755 C   0  0  0  0  0  0
   23.7819   27.6905   28.2189 C   0  0  0  0  0  0
   24.7748   27.5633   27.2412 C   0  0  0  0  0  0
   26.0993   27.9837   27.5073 C   0  0  0  0  0  0
   28.2680   30.2720   28.4395 N   0  0  0  0  0  0
   29.6028   30.4567   28.9166 N   0  0  0  0  0  0
   25.1097   36.0390   27.1877 N   0  0  0  0  0  0
   23.8575   34.2740   25.6648 O   0  0  0  0  0  0
   25.8394   35.1873   24.8128 O   0  0  0  0  0  0
   22.0185   27.3410   27.7995 Br  0  0  0  0  0  0
   31.6163   30.4180   30.9780 F   0  0  0  0  0  0
   32.1515   28.9627   29.3702 F   0  0  0  0  0  0
   31.1850   28.2824   31.2052 F   0  0  0  0  0  0
   25.1633   34.7470   26.0007 S   0  0  0  0  0  0
   25.6762   35.9906   27.9827 H   0  0  0  0  0  0
   24.5155   36.8084   27.0531 H   0  0  0  0  0  0
  1  3  1  0  0  0
  2  1  2  0  0  0
  2 17  1  0  0  0
  3 18  2  0  0  0
  3  4  1  0  0  0
  4 23  1  0  0  0
  4 25  1  0  0  0
  5 17  1  0  0  0
  5  6  2  0  0  0
  7  6  1  0  0  0
  8  7  2  0  0  0
  9 10  2  0  0  0
  9  8  1  0  0  0
 10  5  1  0  0  0
 11  2  1  0  0  0
 12 11  1  0  0  0
 13 12  2  0  0  0
 14 15  2  0  0  0
 14 13  1  0  0  0
 15 16  1  0  0  0
 16 11  2  0  0  0
 17 18  1  0  0  0
 19 28  1  0  0  0
 20 26  2  0  0  0
 22 14  1  0  0  0
 24  4  1  0  0  0
 26  8  1  0  0  0
 26 19  1  0  0  0
 26 21  2  0  0  0
 27 19  1  0  0  0
M  END
>  <CHROM.0>
-78.75341786,123.32732430,72.51062333,173.83197141,-178.92640725

>  <CHROM.1>
-129.31659622,-4.32614795,75.76833817,108.57811258,10.27558499,26.38426436
30.32078280,28.10796363,0.15955671,0.31303987,2.76667690

>  <FORMUL>
      S58    C16 H11 Br1 F3 N3 O2 S1

>  <HET>
 S58  A 701      28

>  <HETNAM>
     S58 1-PHENYLSULFONAMIDE-3-TRIFLUOROMETHYL-5-PARABROMOPHENYL
   2 S58 PYRAZOLE

>  <Name>
S58.pdb

>  <RI>
3.61151e+07

>  <Rbt.Current_Directory>
/home/malgorzata/Desktop/rDOCK_IFD/Wyniki/3_COX2/IFD

>  <Rbt.Executable>
rbdock ($Id: //depot/dev/client3/rdock/2013.1/src/exe/rbdock.cxx#4 $)

>  <Rbt.Library>
libRbt.so (2013.1, Build901 2013/11/27)

>  <Rbt.Parameter_File>
/home/malgorzata/Desktop/rDock_2013.1_src/data/scripts/dock.prm

>  <Rbt.Receptor>
cavity.prm

>  <SCORE>
-24.9498

>  <SCORE.INTER>
-16.412

>  <SCORE.INTER.CONST>
1

>  <SCORE.INTER.POLAR>
-2.649

>  <SCORE.INTER.REPUL>
0

>  <SCORE.INTER.ROT>
5

>  <SCORE.INTER.VDW>
-17.8054

>  <SCORE.INTER.norm>
-0.631231

>  <SCORE.INTRA>
-0.934004

>  <SCORE.INTRA.DIHEDRAL>
-3.05262

>  <SCORE.INTRA.DIHEDRAL.0>
18.1022

>  <SCORE.INTRA.POLAR>
0

>  <SCORE.INTRA.POLAR.0>
0

>  <SCORE.INTRA.REPUL>
0

>  <SCORE.INTRA.REPUL.0>
0

>  <SCORE.INTRA.VDW>
0.592308

>  <SCORE.INTRA.VDW.0>
-2.81782

>  <SCORE.INTRA.norm>
-0.0359232

>  <SCORE.RESTR>
0

>  <SCORE.RESTR.CAVITY>
0

>  <SCORE.RESTR.norm>
0

>  <SCORE.SYSTEM>
-7.60377

>  <SCORE.SYSTEM.CONST>
0

>  <SCORE.SYSTEM.DIHEDRAL>
1.36291

>  <SCORE.SYSTEM.POLAR>
-2.50569

>  <SCORE.SYSTEM.REPUL>
0.236617

>  <SCORE.SYSTEM.VDW>
-0.948968

>  <SCORE.SYSTEM.norm>
-0.292453

>  <SCORE.heavy>
26

>  <SCORE.norm>
-0.959607

$$$$
S58.pdb
  rDOCK(R)          3D
libRbt.so/2013.1/901 2013/11/27
 28 30  0  0  0  0  0  0  0  0999 V2000
   26.4038   30.7329   31.2623 C   0  0  0  0  0  0
   27.3816   30.9971   30.3521 C   0  0  0  0  0  0
   25.2122   31.5192   30.8293 C   0  0  0  0  0  0
   23.8905   31.6710   31.5209 C   0  0  0  0  0  0
   27.3788   32.1364   28.1527 C   0  0  0  0  0  0
   26.4621   32.2066   27.0961 C   0  0  0  0  0  0
   26.9074   32.5467   25.8274 C   0  0  0  0  0  0
   28.2786   32.8211   25.6188 C   0  0  0  0  0  0
   29.1953   32.7508   26.6812 C   0  0  0  0  0  0
   28.7408   32.4033   27.9557 C   0  0  0  0  0  0
   28.7762   30.4638   30.4274 C   0  0  0  0  0  0
   28.9842   29.0680   30.5668 C   0  0  0  0  0  0
   30.2843   28.5350   30.4880 C   0  0  0  0  0  0
   31.3684   29.3803   30.2674 C   0  0  0  0  0  0
   31.1736   30.7617   30.1594 C   0  0  0  0  0  0
   29.8713   31.3092   30.2379 C   0  0  0  0  0  0
   26.8818   31.8554   29.3992 N   0  0  0  0  0  0
   25.5213   32.1466   29.7273 N   0  0  0  0  0  0
   27.9385   34.6713   23.4260 N   0  0  0  0  0  0
   28.7159   32.1657   23.0800 O   0  0  0  0  0  0
   30.2622   33.6257   24.0626 O   0  0  0  0  0  0
   33.0355   28.6524   29.9533 Br  0  0  0  0  0  0
   23.3127   32.8362   31.1356 F   0  0  0  0  0  0
   24.0616   31.6174   32.8511 F   0  0  0  0  0  0
   23.1076   30.6554   31.1399 F   0  0  0  0  0  0
   28.8717   33.2828   23.9572 S   0  0  0  0  0  0
   28.3746   35.3823   22.9165 H   0  0  0  0  0  0
   26.9820   34.7331   23.6369 H   0  0  0  0  0  0
  1  3  1  0  0  0
  2  1  2  0  0  0
  2 17  1  0  0  0
  3 18  2  0  0  0
  3  4  1  0  0  0
  4 23  1  0  0  0
  4 25  1  0  0  0
  5 17  1  0  0  0
  5  6  2  0  0  0
  7  6  1  0  0  0
  8  7  2  0  0  0
  9 10  2  0  0  0
  9  8  1  0  0  0
 10  5  1  0  0  0
 11  2  1  0  0  0
 12 11  1  0  0  0
 13 12  2  0  0  0
 14 15  2  0  0  0
 14 13  1  0  0  0
 15 16  1  0  0  0
 16 11  2  0  0  0
 17 18  1  0  0  0
 19 28  1  0  0  0
 20 26  2  0  0  0
 22 14  1  0  0  0
 24  4  1  0  0  0
 26  8  1  0  0  0
 26 19  1  0  0  0
 26 21  2  0  0  0
 27 19  1  0  0  0
M  END
>  <CHROM.0>
56.29756429,162.97404297,-167.44655495,-59.62373540,-58.40716336

>  <CHROM.1>
155.04517924,136.65881030,53.05269784,55.42317674,142.20167825,28.45501856
31.25766700,28.69066590,-3.11716616,0.34837279,-1.11238688

>  <FORMUL>
      S58    C16 H11 Br1 F3 N3 O2 S1

>  <HET>
 S58  A 701      28

>  <HETNAM>
     S58 1-PHENYLSULFONAMIDE-3-TRIFLUOROMETHYL-5-PARABROMOPHENYL
   2 S58 PYRAZOLE

>  <Name>
S58.pdb

>  <RI>
3.61151e+07

>  <Rbt.Current_Directory>
/home/malgorzata/Desktop/rDOCK_IFD/Wyniki/3_COX2/IFD

>  <Rbt.Executable>
rbdock ($Id: //depot/dev/client3/rdock/2013.1/src/exe/rbdock.cxx#4 $)

>  <Rbt.Library>
libRbt.so (2013.1, Build901 2013/11/27)

>  <Rbt.Parameter_File>
/home/malgorzata/Desktop/rDock_2013.1_src/data/scripts/dock.prm

>  <Rbt.Receptor>
cavity.prm

>  <SCORE>
-4.12457

>  <SCORE.INTER>
-10.1697

>  <SCORE.INTER.CONST>
1

>  <SCORE.INTER.POLAR>
0

>  <SCORE.INTER.REPUL>
0

>  <SCORE.INTER.ROT>
5

>  <SCORE.INTER.VDW>
-20.5697

>  <SCORE.INTER.norm>
-0.391143

>  <SCORE.INTRA>
-0.284067

>  <SCORE.INTRA.DIHEDRAL>
-3.35591

>  <SCORE.INTRA.DIHEDRAL.0>
18.1022

>  <SCORE.INTRA.POLAR>
0

>  <SCORE.INTRA.POLAR.0>
0

>  <SCORE.INTRA.REPUL>
0

>  <SCORE.INTRA.REPUL.0>
0

>  <SCORE.INTRA.VDW>
1.39389

>  <SCORE.INTRA.VDW.0>
-2.81782

>  <SCORE.INTRA.norm>
-0.0109256

>  <SCORE.RESTR>
0

>  <SCORE.RESTR.CAVITY>
0

>  <SCORE.RESTR.norm>
0

>  <SCORE.SYSTEM>
6.32923

>  <SCORE.SYSTEM.CONST>
0

>  <SCORE.SYSTEM.DIHEDRAL>
1.18272

>  <SCORE.SYSTEM.POLAR>
-2.12807

>  <SCORE.SYSTEM.VDW>
12.9733

>  <SCORE.SYSTEM.norm>
0.243432

>  <SCORE.heavy>
26

>  <SCORE.norm>
-0.158637

$$$$
S58.pdb
  rDOCK(R)          3D
libRbt.so/2013.1/901 2013/11/27
 28 30  0  0  0  0  0  0  0  0999 V2000
   28.2378   28.9804   28.9921 C   0  0  0  0  0  0
   27.2778   29.5708   28.2278 C   0  0  0  0  0  0
   29.3335   29.9836   29.1279 C   0  0  0  0  0  0
   30.6707   29.8242   29.7874 C   0  0  0  0  0  0
   26.9370   31.8949   27.4418 C   0  0  0  0  0  0
   26.3790   32.7578   28.3935 C   0  0  0  0  0  0
   25.6626   33.8680   27.9717 C   0  0  0  0  0  0
   25.5087   34.1154   26.5881 C   0  0  0  0  0  0
   26.0708   33.2483   25.6362 C   0  0  0  0  0  0
   26.7873   32.1295   26.0679 C   0  0  0  0  0  0
   26.0160   28.9020   27.7857 C   0  0  0  0  0  0
   25.8646   27.5040   27.9692 C   0  0  0  0  0  0
   24.6303   26.8845   27.6989 C   0  0  0  0  0  0
   23.5536   27.6475   27.2549 C   0  0  0  0  0  0
   23.7048   29.0222   27.0427 C   0  0  0  0  0  0
   24.9412   29.6560   27.3101 C   0  0  0  0  0  0
   27.6865   30.8454   27.9069 N   0  0  0  0  0  0
   28.9688   31.0673   28.4985 N   0  0  0  0  0  0
   23.2568   35.0162   25.0180 N   0  0  0  0  0  0
   25.4651   36.4449   25.3085 O   0  0  0  0  0  0
   24.0735   36.2576   27.1837 O   0  0  0  0  0  0
   21.8879   26.8652   27.1092 Br  0  0  0  0  0  0
   31.4452   28.9990   29.0395 F   0  0  0  0  0  0
   30.5120   29.3596   31.0366 F   0  0  0  0  0  0
   31.2500   31.0288   29.8395 F   0  0  0  0  0  0
   24.5805   35.5801   26.0235 S   0  0  0  0  0  0
   23.3813   34.9380   24.0517 H   0  0  0  0  0  0
   22.3957   34.7777   25.4239 H   0  0  0  0  0  0
  1  3  1  0  0  0
  2  1  2  0  0  0
  2 17  1  0  0  0
  3 18  2  0  0  0
  3  4  1  0  0  0
  4 23  1  0  0  0
  4 25  1  0  0  0
  5 17  1  0  0  0
  5  6  2  0  0  0
  7  6  1  0  0  0
  8  7  2  0  0  0
  9 10  2  0  0  0
  9  8  1  0  0  0
 10  5  1  0  0  0
 11  2  1  0  0  0
 12 11  1  0  0  0
 13 12  2  0  0  0
 14 15  2  0  0  0
 14 13  1  0  0  0
 15 16  1  0  0  0
 16 11  2  0  0  0
 17 18  1  0  0  0
 19 28  1  0  0  0
 20 26  2  0  0  0
 22 14  1  0  0  0
 24  4  1  0  0  0
 26  8  1  0  0  0
 26 19  1  0  0  0
 26 21  2  0  0  0
 27 19  1  0  0  0
M  END
>  <CHROM.0>
67.82995960,178.38807099,-47.77784774,171.43674844,60.30233317

>  <CHROM.1>
70.47470418,90.55637686,-10.68920076,-121.79737265,-91.84698343,25.91301921
30.67874600,27.59123626,-2.18725281,-0.36205906,-0.23193283

>  <FORMUL>
      S58    C16 H11 Br1 F3 N3 O2 S1

>  <HET>
 S58  A 701      28

>  <HETNAM>
     S58 1-PHENYLSULFONAMIDE-3-TRIFLUOROMETHYL-5-PARABROMOPHENYL
   2 S58 PYRAZOLE

>  <Name>
S58.pdb

>  <RI>
3.61151e+07

>  <Rbt.Current_Directory>
/home/malgorzata/Desktop/rDOCK_IFD/Wyniki/3_COX2/IFD

>  <Rbt.Executable>
rbdock ($Id: //depot/dev/client3/rdock/2013.1/src/exe/rbdock.cxx#4 $)

>  <Rbt.Library>
libRbt.so (2013.1, Build901 2013/11/27)

>  <Rbt.Parameter_File>
/home/malgorzata/Desktop/rDock_2013.1_src/data/scripts/dock.prm

>  <Rbt.Receptor>
cavity.prm

>  <SCORE>
-23.9968

>  <SCORE.INTER>
-14.6287

>  <SCORE.INTER.CONST>
1

>  <SCORE.INTER.POLAR>
-2.53008

>  <SCORE.INTER.REPUL>
0

>  <SCORE.INTER.ROT>
5

>  <SCORE.INTER.VDW>
-16.4264

>  <SCORE.INTER.norm>
-0.562642

>  <SCORE.INTRA>
-0.920023

>  <SCORE.INTRA.DIHEDRAL>
-1.87403

>  <SCORE.INTRA.DIHEDRAL.0>
18.1022

>  <SCORE.INTRA.POLAR>
0

>  <SCORE.INTRA.POLAR.0>
0

>  <SCORE.INTRA.REPUL>
0

>  <SCORE.INTRA.REPUL.0>
0

>  <SCORE.INTRA.VDW>
0.0169917

>  <SCORE.INTRA.VDW.0>
-2.81782

>  <SCORE.INTRA.norm>
-0.0353855

>  <SCORE.RESTR>
0.154374

>  <SCORE.RESTR.CAVITY>
0.154374

>  <SCORE.RESTR.norm>
0.00593745

>  <SCORE.SYSTEM>
-8.60251

>  <SCORE.SYSTEM.CONST>
0

>  <SCORE.SYSTEM.DIHEDRAL>
1.51281

>  <SCORE.SYSTEM.POLAR>
-2.38549

>  <SCORE.SYSTEM.VDW>
-1.24825

>  <SCORE.SYSTEM.norm>
-0.330866

>  <SCORE.heavy>
26

>  <SCORE.norm>
-0.922956

$$$$
S58.pdb
  rDOCK(R)          3D
libRbt.so/2013.1/901 2013/11/27
 28 30  0  0  0  0  0  0  0  0999 V2000
   25.6762   30.4465   32.2266 C   0  0  0  0  0  0
   25.9016   30.8037   30.9321 C   0  0  0  0  0  0
   25.2621   31.6930   32.9336 C   0  0  0  0  0  0
   24.9847   31.8916   34.3938 C   0  0  0  0  0  0
   25.4254   32.8630   29.6407 C   0  0  0  0  0  0
   24.9911   34.1873   29.7798 C   0  0  0  0  0  0
   24.8153   34.9705   28.6487 C   0  0  0  0  0  0
   25.0800   34.4232   27.3722 C   0  0  0  0  0  0
   25.5166   33.0947   27.2364 C   0  0  0  0  0  0
   25.6873   32.3099   28.3795 C   0  0  0  0  0  0
   26.3954   29.8746   29.8700 C   0  0  0  0  0  0
   25.5783   28.7938   29.4517 C   0  0  0  0  0  0
   25.9602   28.0019   28.3528 C   0  0  0  0  0  0
   27.1414   28.2840   27.6717 C   0  0  0  0  0  0
   27.9674   29.3298   28.0979 C   0  0  0  0  0  0
   27.5943   30.1322   29.2019 C   0  0  0  0  0  0
   25.6421   32.1480   30.7901 N   0  0  0  0  0  0
   25.2339   32.6623   32.0599 N   0  0  0  0  0  0
   23.3942   34.9236   25.0798 N   0  0  0  0  0  0
   26.0133   35.2991   25.0424 O   0  0  0  0  0  0
   24.7459   36.8182   26.2970 O   0  0  0  0  0  0
   27.5241   27.3792   26.1088 Br  0  0  0  0  0  0
   23.8646   31.2073   34.7358 F   0  0  0  0  0  0
   24.8682   33.2014   34.6630 F   0  0  0  0  0  0
   26.0196   31.3948   35.0805 F   0  0  0  0  0  0
   24.8654   35.4493   25.8799 S   0  0  0  0  0  0
   23.3586   34.8902   24.1036 H   0  0  0  0  0  0
   22.6108   34.6616   25.6098 H   0  0  0  0  0  0
  1  3  1  0  0  0
  2  1  2  0  0  0
  2 17  1  0  0  0
  3 18  2  0  0  0
  3  4  1  0  0  0
  4 23  1  0  0  0
  4 25  1  0  0  0
  5 17  1  0  0  0
  5  6  2  0  0  0
  7  6  1  0  0  0
  8  7  2  0  0  0
  9 10  2  0  0  0
  9  8  1  0  0  0
 10  5  1  0  0  0
 11  2  1  0  0  0
 12 11  1  0  0  0
 13 12  2  0  0  0
 14 15  2  0  0  0
 14 13  1  0  0  0
 15 16  1  0  0  0
 16 11  2  0  0  0
 17 18  1  0  0  0
 19 28  1  0  0  0
 20 26  2  0  0  0
 22 14  1  0  0  0
 24  4  1  0  0  0
 26  8  1  0  0  0
 26 19  1  0  0  0
 26 21  2  0  0  0
 27 19  1  0  0  0
M  END
>  <CHROM.0>
65.86347758,156.80075966,72.37201357,172.15247608,-179.23866265

>  <CHROM.1>
-67.73290158,170.97896926,65.74941808,-105.39665962,-141.99030781,25.82301863
31.52423542,29.04905889,-2.25991361,1.22904398,-1.22883226

>  <FORMUL>
      S58    C16 H11 Br1 F3 N3 O2 S1

>  <HET>
 S58  A 701      28

>  <HETNAM>
     S58 1-PHENYLSULFONAMIDE-3-TRIFLUOROMETHYL-5-PARABROMOPHENYL
   2 S58 PYRAZOLE

>  <Name>
S58.pdb

>  <RI>
3.61151e+07

>  <Rbt.Current_Directory>
/home/malgorzata/Desktop/rDOCK_IFD/Wyniki/3_COX2/IFD

>  <Rbt.Executable>
rbdock ($Id: //depot/dev/client3/rdock/2013.1/src/exe/rbdock.cxx#4 $)

>  <Rbt.Library>
libRbt.so (2013.1, Build901 2013/11/27)

>  <Rbt.Parameter_File>
/home/malgorzata/Desktop/rDock_2013.1_src/data/scripts/dock.prm

>  <Rbt.Receptor>
cavity.prm

>  <SCORE>
-24.1056

>  <SCORE.INTER>
-13.4001

>  <SCORE.INTER.CONST>
1

>  <SCORE.INTER.POLAR>
-2.84779

>  <SCORE.INTER.REPUL>
0

>  <SCORE.INTER.ROT>
5

>  <SCORE.INTER.VDW>
-14.1176

>  <SCORE.INTER.norm>
-0.515389

>  <SCORE.INTRA>
-1.69066

>  <SCORE.INTRA.DIHEDRAL>
-4.71126

>  <SCORE.INTRA.DIHEDRAL.0>
18.1022

>  <SCORE.INTRA.POLAR>
0

>  <SCORE.INTRA.POLAR.0>
0

>  <SCORE.INTRA.REPUL>
0

>  <SCORE.INTRA.REPUL.0>
0

>  <SCORE.INTRA.VDW>
0.664966

>  <SCORE.INTRA.VDW.0>
-2.81782

>  <SCORE.INTRA.norm>
-0.0650256

>  <SCORE.RESTR>
0.125366

>  <SCORE.RESTR.CAVITY>
0.125366

>  <SCORE.RESTR.norm>
0.00482178

>  <SCORE.SYSTEM>
-9.1402

>  <SCORE.SYSTEM.CONST>
0

>  <SCORE.SYSTEM.DIHEDRAL>
1.466

>  <SCORE.SYSTEM.POLAR>
-2.50392

>  <SCORE.SYSTEM.VDW>
-1.35987

>  <SCORE.SYSTEM.norm>
-0.351546

>  <SCORE.heavy>
26

>  <SCORE.norm>
-0.927139

$$$$
S58.pdb
  rDOCK(R)          3D
libRbt.so/2013.1/901 2013/11/27
 28 30  0  0  0  0  0  0  0  0999 V2000
   28.6859   28.5835   29.8557 C   0  0  0  0  0  0
   27.7892   29.1156   28.9799 C   0  0  0  0  0  0
   29.9059   29.4375   29.7687 C   0  0  0  0  0  0
   31.2295   29.2492   30.4478 C   0  0  0  0  0  0
   27.7303   31.2372   27.7029 C   0  0  0  0  0  0
   26.3394   31.1578   27.5582 C   0  0  0  0  0  0
   25.6590   32.1878   26.9260 C   0  0  0  0  0  0
   26.3773   33.3044   26.4399 C   0  0  0  0  0  0
   27.7724   33.3813   26.5878 C   0  0  0  0  0  0
   28.4521   32.3382   27.2216 C   0  0  0  0  0  0
   26.4391   28.5403   28.6947 C   0  0  0  0  0  0
   25.4322   28.5924   29.6919 C   0  0  0  0  0  0
   24.1166   28.1938   29.3905 C   0  0  0  0  0  0
   23.8022   27.7519   28.1082 C   0  0  0  0  0  0
   24.7974   27.6691   27.1282 C   0  0  0  0  0  0
   26.1237   28.0662   27.4196 C   0  0  0  0  0  0
   28.3504   30.2240   28.3874 N   0  0  0  0  0  0
   29.6670   30.3970   28.9166 N   0  0  0  0  0  0
   23.9152   34.0662   25.1340 N   0  0  0  0  0  0
   26.2586   35.1205   24.5025 O   0  0  0  0  0  0
   25.3448   35.7377   26.5693 O   0  0  0  0  0  0
   22.0379   27.4364   27.6659 Br  0  0  0  0  0  0
   31.1410   28.2206   31.3276 F   0  0  0  0  0  0
   31.5996   30.3892   31.0520 F   0  0  0  0  0  0
   32.1322   28.9383   29.5108 F   0  0  0  0  0  0
   25.4900   34.6703   25.6197 S   0  0  0  0  0  0
   23.5304   34.3469   24.2805 H   0  0  0  0  0  0
   23.4235   33.4469   25.7153 H   0  0  0  0  0  0
  1  3  1  0  0  0
  2  1  2  0  0  0
  2 17  1  0  0  0
  3 18  2  0  0  0
  3  4  1  0  0  0
  4 23  1  0  0  0
  4 25  1  0  0  0
  5 17  1  0  0  0
  5  6  2  0  0  0
  7  6  1  0  0  0
  8  7  2  0  0  0
  9 10  2  0  0  0
  9  8  1  0  0  0
 10  5  1  0  0  0
 11  2  1  0  0  0
 12 11  1  0  0  0
 13 12  2  0  0  0
 14 15  2  0  0  0
 14 13  1  0  0  0
 15 16  1  0  0  0
 16 11  2  0  0  0
 17 18  1  0  0  0
 19 28  1  0  0  0
 20 26  2  0  0  0
 22 14  1  0  0  0
 24  4  1  0  0  0
 26  8  1  0  0  0
 26 19  1  0  0  0
 26 21  2  0  0  0
 27 19  1  0  0  0
M  END
>  <CHROM.0>
67.05311243,124.65360093,-46.89733886,172.59630966,-56.04148769

>  <CHROM.1>
-7.07655155,-0.65507171,69.60375716,-18.36347474,-141.66284476,26.47206271
30.29441544,27.97086112,0.21444869,0.33458785,2.69230688

>  <FORMUL>
      S58    C16 H11 Br1 F3 N3 O2 S1

>  <HET>
 S58  A 701      28

>  <HETNAM>
     S58 1-PHENYLSULFONAMIDE-3-TRIFLUOROMETHYL-5-PARABROMOPHENYL
   2 S58 PYRAZOLE

>  <Name>
S58.pdb

>  <RI>
3.61151e+07

>  <Rbt.Current_Directory>
/home/malgorzata/Desktop/rDOCK_IFD/Wyniki/3_COX2/IFD

>  <Rbt.Executable>
rbdock ($Id: //depot/dev/client3/rdock/2013.1/src/exe/rbdock.cxx#4 $)

>  <Rbt.Library>
libRbt.so (2013.1, Build901 2013/11/27)

>  <Rbt.Parameter_File>
/home/malgorzata/Desktop/rDock_2013.1_src/data/scripts/dock.prm

>  <Rbt.Receptor>
cavity.prm

>  <SCORE>
-23.6597

>  <SCORE.INTER>
-13.8129

>  <SCORE.INTER.CONST>
1

>  <SCORE.INTER.POLAR>
-2.1441

>  <SCORE.INTER.REPUL>
0

>  <SCORE.INTER.ROT>
5

>  <SCORE.INTER.VDW>
-16.9229

>  <SCORE.INTER.norm>
-0.531265

>  <SCORE.INTRA>
-1.31174

>  <SCORE.INTRA.DIHEDRAL>
-3.83586

>  <SCORE.INTRA.DIHEDRAL.0>
18.1022

>  <SCORE.INTRA.POLAR>
0

>  <SCORE.INTRA.POLAR.0>
0

>  <SCORE.INTRA.REPUL>
0

>  <SCORE.INTRA.REPUL.0>
0

>  <SCORE.INTRA.VDW>
0.606191

>  <SCORE.INTRA.VDW.0>
-2.81782

>  <SCORE.INTRA.norm>
-0.0504515

>  <SCORE.RESTR>
0

>  <SCORE.RESTR.CAVITY>
0

>  <SCORE.RESTR.norm>
0

>  <SCORE.SYSTEM>
-8.53505

>  <SCORE.SYSTEM.CONST>
0

>  <SCORE.SYSTEM.DIHEDRAL>
1.51376

>  <SCORE.SYSTEM.POLAR>
-2.38838

>  <SCORE.SYSTEM.VDW>
-1.17145

>  <SCORE.SYSTEM.norm>
-0.328271

>  <SCORE.heavy>
26

>  <SCORE.norm>
-0.909988

$$$$
S58.pdb
  rDOCK(R)          3D
libRbt.so/2013.1/901 2013/11/27
 28 30  0  0  0  0  0  0  0  0999 V2000
   23.5164   28.2905   27.3305 C   0  0  0  0  0  0
   24.6986   28.9638   27.3899 C   0  0  0  0  0  0
   23.8301   26.8728   27.6729 C   0  0  0  0  0  0
   22.9152   25.6848   27.6661 C   0  0  0  0  0  0
   26.9450   28.3607   28.2414 C   0  0  0  0  0  0
   27.0254   29.0556   29.4548 C   0  0  0  0  0  0
   28.2683   29.3059   30.0171 C   0  0  0  0  0  0
   29.4358   28.8532   29.3605 C   0  0  0  0  0  0
   29.3514   28.1553   28.1441 C   0  0  0  0  0  0
   28.0966   27.9106   27.5808 C   0  0  0  0  0  0
   24.8666   30.4122   27.0601 C   0  0  0  0  0  0
   26.1686   30.9723   27.0149 C   0  0  0  0  0  0
   26.3562   32.2910   26.5608 C   0  0  0  0  0  0
   25.2607   33.0457   26.1499 C   0  0  0  0  0  0
   23.9701   32.5098   26.2205 C   0  0  0  0  0  0
   23.7690   31.1855   26.6763 C   0  0  0  0  0  0
   25.6928   28.0851   27.7561 N   0  0  0  0  0  0
   25.1063   26.7938   27.9349 N   0  0  0  0  0  0
   30.8166   29.8477   31.6955 N   0  0  0  0  0  0
   31.8067   30.0501   29.2499 O   0  0  0  0  0  0
   31.7617   27.9083   30.1977 O   0  0  0  0  0  0
   25.5389   34.6900   25.3583 Br  0  0  0  0  0  0
   22.2640   25.6121   28.8539 F   0  0  0  0  0  0
   23.6171   24.5686   27.4153 F   0  0  0  0  0  0
   22.0159   25.8636   26.6921 F   0  0  0  0  0  0
   31.0739   29.1650   30.0990 S   0  0  0  0  0  0
   30.0431   30.4227   31.8579 H   0  0  0  0  0  0
   31.4450   29.6514   32.4233 H   0  0  0  0  0  0
  1  3  1  0  0  0
  2  1  2  0  0  0
  2 17  1  0  0  0
  3 18  2  0  0  0
  3  4  1  0  0  0
  4 23  1  0  0  0
  4 25  1  0  0  0
  5 17  1  0  0  0
  5  6  2  0  0  0
  7  6  1  0  0  0
  8  7  2  0  0  0
  9 10  2  0  0  0
  9  8  1  0  0  0
 10  5  1  0  0  0
 11  2  1  0  0  0
 12 11  1  0  0  0
 13 12  2  0  0  0
 14 15  2  0  0  0
 14 13  1  0  0  0
 15 16  1  0  0  0
 16 11  2  0  0  0
 17 18  1  0  0  0
 19 28  1  0  0  0
 20 26  2  0  0  0
 22 14  1  0  0  0
 24  4  1  0  0  0
 26  8  1  0  0  0
 26 19  1  0  0  0
 26 21  2  0  0  0
 27 19  1  0  0  0
M  END
>  <CHROM.0>
60.59327122,162.20490949,-45.45980290,172.92616808,-60.38363402

>  <CHROM.1>
-85.67346021,61.39242387,-173.07926111,7.29910027,-33.08098670,26.36618465
29.72752679,27.72843580,2.01226962,-0.39917648,-0.35454115

>  <FORMUL>
      S58    C16 H11 Br1 F3 N3 O2 S1

>  <HET>
 S58  A 701      28

>  <HETNAM>
     S58 1-PHENYLSULFONAMIDE-3-TRIFLUOROMETHYL-5-PARABROMOPHENYL
   2 S58 PYRAZOLE

>  <Name>
S58.pdb

>  <RI>
3.61151e+07

>  <Rbt.Current_Directory>
/home/malgorzata/Desktop/rDOCK_IFD/Wyniki/3_COX2/IFD

>  <Rbt.Executable>
rbdock ($Id: //depot/dev/client3/rdock/2013.1/src/exe/rbdock.cxx#4 $)

>  <Rbt.Library>
libRbt.so (2013.1, Build901 2013/11/27)

>  <Rbt.Parameter_File>
/home/malgorzata/Desktop/rDock_2013.1_src/data/scripts/dock.prm

>  <Rbt.Receptor>
cavity.prm

>  <SCORE>
-29.5143

>  <SCORE.INTER>
-18.9525

>  <SCORE.INTER.CONST>
1

>  <SCORE.INTER.POLAR>
-2.39408

>  <SCORE.INTER.REPUL>
0

>  <SCORE.INTER.ROT>
5

>  <SCORE.INTER.VDW>
-21.2126

>  <SCORE.INTER.norm>
-0.728941

>  <SCORE.INTRA>
-1.92766

>  <SCORE.INTRA.DIHEDRAL>
-3.99534

>  <SCORE.INTRA.DIHEDRAL.0>
18.1022

>  <SCORE.INTRA.POLAR>
0

>  <SCORE.INTRA.POLAR.0>
0

>  <SCORE.INTRA.REPUL>
0

>  <SCORE.INTRA.REPUL.0>
0

>  <SCORE.INTRA.VDW>
0.07001

>  <SCORE.INTRA.VDW.0>
-2.81782

>  <SCORE.INTRA.norm>
-0.0741407

>  <SCORE.RESTR>
0

>  <SCORE.RESTR.CAVITY>
0

>  <SCORE.RESTR.norm>
0

>  <SCORE.SYSTEM>
-8.63414

>  <SCORE.SYSTEM.CONST>
0

>  <SCORE.SYSTEM.DIHEDRAL>
1.54195

>  <SCORE.SYSTEM.POLAR>
-2.37239

>  <SCORE.SYSTEM.VDW>
-1.33898

>  <SCORE.SYSTEM.norm>
-0.332082

>  <SCORE.heavy>
26

>  <SCORE.norm>
-1.13516

$$$$
S58.pdb
  rDOCK(R)          3D
libRbt.so/2013.1/901 2013/11/27
 28 30  0  0  0  0  0  0  0  0999 V2000
   26.7293   32.1191   27.4955 C   0  0  0  0  0  0
   26.5995   30.7971   27.7954 C   0  0  0  0  0  0
   25.6712   32.4205   26.4880 C   0  0  0  0  0  0
   25.4230   33.7003   25.7471 C   0  0  0  0  0  0
   24.8588   29.1115   27.2818 C   0  0  0  0  0  0
   23.4904   29.1107   26.9828 C   0  0  0  0  0  0
   22.7628   27.9377   27.1180 C   0  0  0  0  0  0
   23.4122   26.7591   27.5518 C   0  0  0  0  0  0
   24.7853   26.7632   27.8496 C   0  0  0  0  0  0
   25.5113   27.9492   27.7157 C   0  0  0  0  0  0
   27.4983   30.0466   28.7248 C   0  0  0  0  0  0
   28.9001   30.0683   28.5111 C   0  0  0  0  0  0
   29.7692   29.4953   29.4580 C   0  0  0  0  0  0
   29.2512   28.9099   30.6102 C   0  0  0  0  0  0
   27.8677   28.8580   30.8127 C   0  0  0  0  0  0
   26.9840   29.4300   29.8673 C   0  0  0  0  0  0
   25.5471   30.2790   27.0753 N   0  0  0  0  0  0
   24.9875   31.3279   26.2815 N   0  0  0  0  0  0
   21.1652   25.2491   26.5426 N   0  0  0  0  0  0
   21.9767   25.1040   29.0570 O   0  0  0  0  0  0
   23.3567   24.1155   27.4427 O   0  0  0  0  0  0
   30.4037   28.3548   31.9410 Br  0  0  0  0  0  0
   24.2082   33.6433   25.1460 F   0  0  0  0  0  0
   26.4070   33.9129   24.8593 F   0  0  0  0  0  0
   25.4160   34.6973   26.6388 F   0  0  0  0  0  0
   22.4672   25.2084   27.7191 S   0  0  0  0  0  0
   20.8555   24.4173   26.1333 H   0  0  0  0  0  0
   20.7476   26.1029   26.2980 H   0  0  0  0  0  0
  1  3  1  0  0  0
  2  1  2  0  0  0
  2 17  1  0  0  0
  3 18  2  0  0  0
  3  4  1  0  0  0
  4 23  1  0  0  0
  4 25  1  0  0  0
  5 17  1  0  0  0
  5  6  2  0  0  0
  7  6  1  0  0  0
  8  7  2  0  0  0
  9 10  2  0  0  0
  9  8  1  0  0  0
 10  5  1  0  0  0
 11  2  1  0  0  0
 12 11  1  0  0  0
 13 12  2  0  0  0
 14 15  2  0  0  0
 14 13  1  0  0  0
 15 16  1  0  0  0
 16 11  2  0  0  0
 17 18  1  0  0  0
 19 28  1  0  0  0
 20 26  2  0  0  0
 22 14  1  0  0  0
 24  4  1  0  0  0
 26  8  1  0  0  0
 26 19  1  0  0  0
 26 21  2  0  0  0
 27 19  1  0  0  0
M  END
>  <CHROM.0>
64.82016647,176.92292412,-47.49447819,170.89144025,60.69271139

>  <CHROM.1>
-167.20815309,145.57826945,-53.94824444,29.76131457,147.65300251,26.09153376
29.18192678,28.31617990,-0.03628837,-0.56617901,-0.45408972

>  <FORMUL>
      S58    C16 H11 Br1 F3 N3 O2 S1

>  <HET>
 S58  A 701      28

>  <HETNAM>
     S58 1-PHENYLSULFONAMIDE-3-TRIFLUOROMETHYL-5-PARABROMOPHENYL
   2 S58 PYRAZOLE

>  <Name>
S58.pdb

>  <RI>
3.61151e+07

>  <Rbt.Current_Directory>
/home/malgorzata/Desktop/rDOCK_IFD/Wyniki/3_COX2/IFD

>  <Rbt.Executable>
rbdock ($Id: //depot/dev/client3/rdock/2013.1/src/exe/rbdock.cxx#4 $)

>  <Rbt.Library>
libRbt.so (2013.1, Build901 2013/11/27)

>  <Rbt.Parameter_File>
/home/malgorzata/Desktop/rDock_2013.1_src/data/scripts/dock.prm

>  <Rbt.Receptor>
cavity.prm

>  <SCORE>
-22.0418

>  <SCORE.INTER>
-12.3603

>  <SCORE.INTER.CONST>
1

>  <SCORE.INTER.POLAR>
-0.959166

>  <SCORE.INTER.REPUL>
0

>  <SCORE.INTER.ROT>
5

>  <SCORE.INTER.VDW>
-19.4991

>  <SCORE.INTER.norm>
-0.475394

>  <SCORE.INTRA>
-1.02309

>  <SCORE.INTRA.DIHEDRAL>
-2.95883

>  <SCORE.INTRA.DIHEDRAL.0>
18.1022

>  <SCORE.INTRA.POLAR>
0

>  <SCORE.INTRA.POLAR.0>
0

>  <SCORE.INTRA.REPUL>
0

>  <SCORE.INTRA.REPUL.0>
0

>  <SCORE.INTRA.VDW>
0.456326

>  <SCORE.INTRA.VDW.0>
-2.81782

>  <SCORE.INTRA.norm>
-0.0393495

>  <SCORE.RESTR>
0

>  <SCORE.RESTR.CAVITY>
0

>  <SCORE.RESTR.norm>
0

>  <SCORE.SYSTEM>
-8.65846

>  <SCORE.SYSTEM.CONST>
0

>  <SCORE.SYSTEM.DIHEDRAL>
1.57585

>  <SCORE.SYSTEM.POLAR>
-2.38867

>  <SCORE.SYSTEM.VDW>
-1.3249

>  <SCORE.SYSTEM.norm>
-0.333018

>  <SCORE.heavy>
26

>  <SCORE.norm>
-0.847762

$$$$
S58.pdb
  rDOCK(R)          3D
libRbt.so/2013.1/901 2013/11/27
 28 30  0  0  0  0  0  0  0  0999 V2000
   23.3560   28.4443   28.9665 C   0  0  0  0  0  0
   24.4857   29.1449   29.2617 C   0  0  0  0  0  0
   23.8118   27.1673   28.3446 C   0  0  0  0  0  0
   22.9827   26.0701   27.7468 C   0  0  0  0  0  0
   26.8892   28.5465   29.2755 C   0  0  0  0  0  0
   27.8754   28.1968   28.3445 C   0  0  0  0  0  0
   29.2121   28.3850   28.6626 C   0  0  0  0  0  0
   29.5607   28.9304   29.9197 C   0  0  0  0  0  0
   28.5688   29.2813   30.8508 C   0  0  0  0  0  0
   27.2244   29.0848   30.5257 C   0  0  0  0  0  0
   24.5013   30.5198   29.8486 C   0  0  0  0  0  0
   25.5739   31.3968   29.5461 C   0  0  0  0  0  0
   25.5299   32.7394   29.9654 C   0  0  0  0  0  0
   24.4277   33.2088   30.6749 C   0  0  0  0  0  0
   23.3800   32.3414   31.0030 C   0  0  0  0  0  0
   23.4136   30.9893   30.5877 C   0  0  0  0  0  0
   25.5813   28.3982   28.8922 N   0  0  0  0  0  0
   25.1170   27.1661   28.3356 N   0  0  0  0  0  0
   31.3762   29.8799   31.9569 N   0  0  0  0  0  0
   31.9023   30.0621   29.3700 O   0  0  0  0  0  0
   31.9744   27.9195   30.3146 O   0  0  0  0  0  0
   24.2823   35.0141   31.0323 Br  0  0  0  0  0  0
   22.3475   26.5372   26.6430 F   0  0  0  0  0  0
   22.1155   25.6036   28.6589 F   0  0  0  0  0  0
   23.8080   25.0822   27.3832 F   0  0  0  0  0  0
   31.3150   29.1949   30.3420 S   0  0  0  0  0  0
   31.8859   30.6983   32.1174 H   0  0  0  0  0  0
   30.8986   29.4450   32.6959 H   0  0  0  0  0  0
  1  3  1  0  0  0
  2  1  2  0  0  0
  2 17  1  0  0  0
  3 18  2  0  0  0
  3  4  1  0  0  0
  4 23  1  0  0  0
  4 25  1  0  0  0
  5 17  1  0  0  0
  5  6  2  0  0  0
  7  6  1  0  0  0
  8  7  2  0  0  0
  9 10  2  0  0  0
  9  8  1  0  0  0
 10  5  1  0  0  0
 11  2  1  0  0  0
 12 11  1  0  0  0
 13 12  2  0  0  0
 14 15  2  0  0  0
 14 13  1  0  0  0
 15 16  1  0  0  0
 16 11  2  0  0  0
 17 18  1  0  0  0
 19 28  1  0  0  0
 20 26  2  0  0  0
 22 14  1  0  0  0
 24  4  1  0  0  0
 26  8  1  0  0  0
 26 19  1  0  0  0
 26 21  2  0  0  0
 27 19  1  0  0  0
M  END
>  <CHROM.0>
57.27746678,156.59388519,73.92285401,171.62070677,60.34120047

>  <CHROM.1>
65.55433746,-147.91873615,-149.88543586,179.88709601,-128.11606327,26.09834240
29.93343861,29.69417032,2.12240759,-0.15849538,0.34817193

>  <FORMUL>
      S58    C16 H11 Br1 F3 N3 O2 S1

>  <HET>
 S58  A 701      28

>  <HETNAM>
     S58 1-PHENYLSULFONAMIDE-3-TRIFLUOROMETHYL-5-PARABROMOPHENYL
   2 S58 PYRAZOLE

>  <Name>
S58.pdb

>  <RI>
3.61151e+07

>  <Rbt.Current_Directory>
/home/malgorzata/Desktop/rDOCK_IFD/Wyniki/3_COX2/IFD

>  <Rbt.Executable>
rbdock ($Id: //depot/dev/client3/rdock/2013.1/src/exe/rbdock.cxx#4 $)

>  <Rbt.Library>
libRbt.so (2013.1, Build901 2013/11/27)

>  <Rbt.Parameter_File>
/home/malgorzata/Desktop/rDock_2013.1_src/data/scripts/dock.prm

>  <Rbt.Receptor>
cavity.prm

>  <SCORE>
-23.2646

>  <SCORE.INTER>
-11.0379

>  <SCORE.INTER.CONST>
1

>  <SCORE.INTER.POLAR>
-2.47672

>  <SCORE.INTER.REPUL>
0

>  <SCORE.INTER.ROT>
5

>  <SCORE.INTER.VDW>
-13.0171

>  <SCORE.INTER.norm>
-0.424536

>  <SCORE.INTRA>
-3.14473

>  <SCORE.INTRA.DIHEDRAL>
-7.06583

>  <SCORE.INTRA.DIHEDRAL.0>
18.1022

>  <SCORE.INTRA.POLAR>
0

>  <SCORE.INTRA.POLAR.0>
0

>  <SCORE.INTRA.REPUL>
0

>  <SCORE.INTRA.REPUL.0>
0

>  <SCORE.INTRA.VDW>
0.388187

>  <SCORE.INTRA.VDW.0>
-2.81782

>  <SCORE.INTRA.norm>
-0.120951

>  <SCORE.RESTR>
0

>  <SCORE.RESTR.CAVITY>
0

>  <SCORE.RESTR.norm>
0

>  <SCORE.SYSTEM>
-9.08189

>  <SCORE.SYSTEM.CONST>
0

>  <SCORE.SYSTEM.DIHEDRAL>
1.59933

>  <SCORE.SYSTEM.POLAR>
-2.50009

>  <SCORE.SYSTEM.VDW>
-1.38126

>  <SCORE.SYSTEM.norm>
-0.349303

>  <SCORE.heavy>
26

>  <SCORE.norm>
-0.894791

$$$$
