S58.pdb
  rDOCK(R)          3D
libRbt.so/2013.1/901 2013/11/27
 28 30  0  0  0  0  0  0  0  0999 V2000
   23.9701   20.4187   17.2662 C   0  0  0  0  0  0
   23.2414   20.9043   16.2234 C   0  0  0  0  0  0
   25.3951   20.4523   16.8263 C   0  0  0  0  0  0
   26.6083   19.9450   17.5468 C   0  0  0  0  0  0
   23.8629   22.0477   14.1160 C   0  0  0  0  0  0
   24.7657   23.0921   13.8796 C   0  0  0  0  0  0
   24.6039   23.8941   12.7596 C   0  0  0  0  0  0
   23.5331   23.6444   11.8706 C   0  0  0  0  0  0
   22.6301   22.5951   12.1102 C   0  0  0  0  0  0
   22.7961   21.7940   13.2426 C   0  0  0  0  0  0
   21.7494   20.9961   16.2019 C   0  0  0  0  0  0
   21.1231   22.0258   15.4545 C   0  0  0  0  0  0
   19.7244   22.0377   15.3004 C   0  0  0  0  0  0
   18.9541   21.0326   15.8792 C   0  0  0  0  0  0
   19.5626   20.0308   16.6433 C   0  0  0  0  0  0
   20.9679   20.0090   16.8061 C   0  0  0  0  0  0
   24.0991   21.2458   15.2025 N   0  0  0  0  0  0
   25.4346   20.9594   15.6243 N   0  0  0  0  0  0
   23.2809   23.6199    8.9925 N   0  0  0  0  0  0
   24.3974   25.6203   10.3168 O   0  0  0  0  0  0
   22.0748   25.3877   10.5151 O   0  0  0  0  0  0
   17.1512   20.9376   15.4941 Br  0  0  0  0  0  0
   26.2659   18.8731   18.3043 F   0  0  0  0  0  0
   27.1433   20.9271   18.2890 F   0  0  0  0  0  0
   27.4998   19.5563   16.6284 F   0  0  0  0  0  0
   23.3202   24.6843   10.3877 S   0  0  0  0  0  0
   23.4646   22.6665    9.1048 H   0  0  0  0  0  0
   23.0727   23.9793    8.1033 H   0  0  0  0  0  0
  1  3  1  0  0  0
  2  1  2  0  0  0
  2 17  1  0  0  0
  3 18  2  0  0  0
  3  4  1  0  0  0
  4 23  1  0  0  0
  4 25  1  0  0  0
  5 17  1  0  0  0
  5  6  2  0  0  0
  7  6  1  0  0  0
  8  7  2  0  0  0
  9 10  2  0  0  0
  9  8  1  0  0  0
 10  5  1  0  0  0
 11  2  1  0  0  0
 12 11  1  0  0  0
 13 12  2  0  0  0
 14 15  2  0  0  0
 14 13  1  0  0  0
 15 16  1  0  0  0
 16 11  2  0  0  0
 17 18  1  0  0  0
 19 28  1  0  0  0
 20 26  2  0  0  0
 22 14  1  0  0  0
 24  4  1  0  0  0
 26  8  1  0  0  0
 26 19  1  0  0  0
 26 21  2  0  0  0
 27 19  1  0  0  0
M  END
>  <CHROM.0>
-170.22978063,-176.57716480,-19.50189634,14.27506670,-173.91304561,2.31093766
-68.80096838

>  <CHROM.1>
31.29005488,127.79515405,149.79159618,124.90495938,-6.63119064,22.48368106
21.77623144,14.64066459,0.12324339,0.03063415,2.15732114

>  <FORMUL>
      S58    C16 H11 Br1 F3 N3 O2 S1

>  <HET>
 S58  A 701      28

>  <HETNAM>
     S58 1-PHENYLSULFONAMIDE-3-TRIFLUOROMETHYL-5-PARABROMOPHENYL
   2 S58 PYRAZOLE

>  <Name>
S58.pdb

>  <RI>
0

>  <Rbt.Current_Directory>
/home/malgorzata/Desktop/rDOCK_IFD/Wyniki/3_COX2/IFD

>  <Rbt.Executable>
rbdock ($Id: //depot/dev/client3/rdock/2013.1/src/exe/rbdock.cxx#4 $)

>  <Rbt.Library>
libRbt.so (2013.1, Build901 2013/11/27)

>  <Rbt.Parameter_File>
/home/malgorzata/Desktop/rDock_2013.1_src/data/scripts/hard_docking.prm

>  <Rbt.Receptor>
cavity.prm

>  <SCORE>
-23.3757

>  <SCORE.INTER>
-19.1064

>  <SCORE.INTER.CONST>
1

>  <SCORE.INTER.POLAR>
-0.534446

>  <SCORE.INTER.REPUL>
0

>  <SCORE.INTER.ROT>
5

>  <SCORE.INTER.VDW>
-27.6893

>  <SCORE.INTER.norm>
-0.734862

>  <SCORE.INTRA>
-0.991812

>  <SCORE.INTRA.DIHEDRAL>
-4.7188

>  <SCORE.INTRA.DIHEDRAL.0>
18.1022

>  <SCORE.INTRA.POLAR>
0

>  <SCORE.INTRA.POLAR.0>
0

>  <SCORE.INTRA.REPUL>
0

>  <SCORE.INTRA.REPUL.0>
0

>  <SCORE.INTRA.VDW>
1.36759

>  <SCORE.INTRA.VDW.0>
-2.81782

>  <SCORE.INTRA.norm>
-0.0381466

>  <SCORE.RESTR>
0.683942

>  <SCORE.RESTR.CAVITY>
0.683942

>  <SCORE.RESTR.norm>
0.0263054

>  <SCORE.SYSTEM>
-3.96144

>  <SCORE.SYSTEM.CONST>
0

>  <SCORE.SYSTEM.DIHEDRAL>
1.70972

>  <SCORE.SYSTEM.POLAR>
-0.719873

>  <SCORE.SYSTEM.VDW>
-2.36873

>  <SCORE.SYSTEM.norm>
-0.152363

>  <SCORE.heavy>
26

>  <SCORE.norm>
-0.899066

$$$$
S58.pdb
  rDOCK(R)          3D
libRbt.so/2013.1/901 2013/11/27
 28 30  0  0  0  0  0  0  0  0999 V2000
   23.7254   22.6754   12.6471 C   0  0  0  0  0  0
   24.5082   23.4927   13.4044 C   0  0  0  0  0  0
   23.0682   23.5528   11.6355 C   0  0  0  0  0  0
   22.0339   23.1887   10.6128 C   0  0  0  0  0  0
   25.2195   25.8526   13.1593 C   0  0  0  0  0  0
   26.0909   25.7717   14.2528 C   0  0  0  0  0  0
   26.9838   26.8056   14.4923 C   0  0  0  0  0  0
   27.0048   27.9244   13.6280 C   0  0  0  0  0  0
   26.1301   28.0017   12.5313 C   0  0  0  0  0  0
   25.2302   26.9589   12.2985 C   0  0  0  0  0  0
   25.3100   23.0443   14.5838 C   0  0  0  0  0  0
   24.6441   22.5640   15.7400 C   0  0  0  0  0  0
   25.3808   21.9990   16.7975 C   0  0  0  0  0  0
   26.7671   21.9069   16.7057 C   0  0  0  0  0  0
   27.4330   22.4064   15.5811 C   0  0  0  0  0  0
   26.7030   22.9775   14.5120 C   0  0  0  0  0  0
   24.3978   24.7797   12.9290 N   0  0  0  0  0  0
   23.4992   24.7714   11.8172 N   0  0  0  0  0  0
   29.7977   28.6643   13.6139 N   0  0  0  0  0  0
   28.0381   29.7399   15.2719 O   0  0  0  0  0  0
   27.8730   30.3482   13.0156 O   0  0  0  0  0  0
   27.7006   20.9749   17.9971 Br  0  0  0  0  0  0
   21.3308   22.1132   11.0477 F   0  0  0  0  0  0
   22.6235   22.9516    9.4305 F   0  0  0  0  0  0
   21.1990   24.2260   10.4844 F   0  0  0  0  0  0
   28.1849   29.2825   13.9262 S   0  0  0  0  0  0
   30.5611   29.2745   13.6236 H   0  0  0  0  0  0
   29.9337   27.7093   13.4327 H   0  0  0  0  0  0
  1  3  1  0  0  0
  2  1  2  0  0  0
  2 17  1  0  0  0
  3 18  2  0  0  0
  3  4  1  0  0  0
  4 23  1  0  0  0
  4 25  1  0  0  0
  5 17  1  0  0  0
  5  6  2  0  0  0
  7  6  1  0  0  0
  8  7  2  0  0  0
  9 10  2  0  0  0
  9  8  1  0  0  0
 10  5  1  0  0  0
 11  2  1  0  0  0
 12 11  1  0  0  0
 13 12  2  0  0  0
 14 15  2  0  0  0
 14 13  1  0  0  0
 15 16  1  0  0  0
 16 11  2  0  0  0
 17 18  1  0  0  0
 19 28  1  0  0  0
 20 26  2  0  0  0
 22 14  1  0  0  0
 24  4  1  0  0  0
 26  8  1  0  0  0
 26 19  1  0  0  0
 26 21  2  0  0  0
 27 19  1  0  0  0
M  END
>  <CHROM.0>
-32.06286361,-82.27408098,-24.17465116,120.30735303,61.88857313,1.95530534
-69.51414069

>  <CHROM.1>
26.15480935,-17.59613117,-65.31798866,68.13770975,173.19283100,25.79770781
24.51858593,14.10271669,1.39350573,0.74483279,2.62410691

>  <FORMUL>
      S58    C16 H11 Br1 F3 N3 O2 S1

>  <HET>
 S58  A 701      28

>  <HETNAM>
     S58 1-PHENYLSULFONAMIDE-3-TRIFLUOROMETHYL-5-PARABROMOPHENYL
   2 S58 PYRAZOLE

>  <Name>
S58.pdb

>  <RI>
0

>  <Rbt.Current_Directory>
/home/malgorzata/Desktop/rDOCK_IFD/Wyniki/3_COX2/IFD

>  <Rbt.Executable>
rbdock ($Id: //depot/dev/client3/rdock/2013.1/src/exe/rbdock.cxx#4 $)

>  <Rbt.Library>
libRbt.so (2013.1, Build901 2013/11/27)

>  <Rbt.Parameter_File>
/home/malgorzata/Desktop/rDock_2013.1_src/data/scripts/hard_docking.prm

>  <Rbt.Receptor>
cavity.prm

>  <SCORE>
-13.1945

>  <SCORE.INTER>
-12.1508

>  <SCORE.INTER.CONST>
1

>  <SCORE.INTER.POLAR>
-0.824621

>  <SCORE.INTER.REPUL>
0

>  <SCORE.INTER.ROT>
5

>  <SCORE.INTER.VDW>
-19.7471

>  <SCORE.INTER.norm>
-0.467338

>  <SCORE.INTRA>
-0.172633

>  <SCORE.INTRA.DIHEDRAL>
-3.16579

>  <SCORE.INTRA.DIHEDRAL.0>
18.1022

>  <SCORE.INTRA.POLAR>
0

>  <SCORE.INTRA.POLAR.0>
0

>  <SCORE.INTRA.REPUL>
0

>  <SCORE.INTRA.REPUL.0>
0

>  <SCORE.INTRA.VDW>
1.41026

>  <SCORE.INTRA.VDW.0>
-2.81782

>  <SCORE.INTRA.norm>
-0.00663971

>  <SCORE.RESTR>
0.31685

>  <SCORE.RESTR.CAVITY>
0.31685

>  <SCORE.RESTR.norm>
0.0121865

>  <SCORE.SYSTEM>
-1.18792

>  <SCORE.SYSTEM.CONST>
0

>  <SCORE.SYSTEM.DIHEDRAL>
5.20117

>  <SCORE.SYSTEM.POLAR>
-0.727605

>  <SCORE.SYSTEM.REPUL>
0.0890871

>  <SCORE.SYSTEM.VDW>
-1.76009

>  <SCORE.SYSTEM.norm>
-0.0456894

>  <SCORE.heavy>
26

>  <SCORE.norm>
-0.507481

$$$$
S58.pdb
  rDOCK(R)          3D
libRbt.so/2013.1/901 2013/11/27
 28 30  0  0  0  0  0  0  0  0999 V2000
   25.5803   21.1800   15.9185 C   0  0  0  0  0  0
   24.3641   21.4547   15.3710 C   0  0  0  0  0  0
   25.3212   20.8222   17.3433 C   0  0  0  0  0  0
   26.3129   20.5238   18.4277 C   0  0  0  0  0  0
   22.0411   21.1267   16.1654 C   0  0  0  0  0  0
   21.4620   19.9439   16.6423 C   0  0  0  0  0  0
   20.0887   19.7716   16.5526 C   0  0  0  0  0  0
   19.2924   20.7928   15.9848 C   0  0  0  0  0  0
   19.8765   21.9785   15.5085 C   0  0  0  0  0  0
   21.2608   22.1436   15.5978 C   0  0  0  0  0  0
   24.1525   21.9182   13.9655 C   0  0  0  0  0  0
   22.8681   21.7992   13.3761 C   0  0  0  0  0  0
   22.6140   22.3655   12.1132 C   0  0  0  0  0  0
   23.6252   23.0489   11.4431 C   0  0  0  0  0  0
   24.9030   23.1438   12.0052 C   0  0  0  0  0  0
   25.1707   22.5777   13.2739 C   0  0  0  0  0  0
   23.3938   21.2760   16.3307 N   0  0  0  0  0  0
   24.0322   20.8694   17.5434 N   0  0  0  0  0  0
   16.8924   21.6911   14.6505 N   0  0  0  0  0  0
   16.9067   20.8405   17.1561 O   0  0  0  0  0  0
   17.2194   19.2240   15.4898 O   0  0  0  0  0  0
   23.2244   23.9674    9.8928 Br  0  0  0  0  0  0
   25.7225   20.6963   19.6368 F   0  0  0  0  0  0
   27.3941   21.3066   18.2866 F   0  0  0  0  0  0
   26.6817   19.2436   18.3072 F   0  0  0  0  0  0
   17.4843   20.5817   15.8752 S   0  0  0  0  0  0
   17.2037   22.6175   14.6444 H   0  0  0  0  0  0
   16.2534   21.3825   13.9725 H   0  0  0  0  0  0
  1  3  1  0  0  0
  2  1  2  0  0  0
  2 17  1  0  0  0
  3 18  2  0  0  0
  3  4  1  0  0  0
  4 23  1  0  0  0
  4 25  1  0  0  0
  5 17  1  0  0  0
  5  6  2  0  0  0
  7  6  1  0  0  0
  8  7  2  0  0  0
  9 10  2  0  0  0
  9  8  1  0  0  0
 10  5  1  0  0  0
 11  2  1  0  0  0
 12 11  1  0  0  0
 13 12  2  0  0  0
 14 15  2  0  0  0
 14 13  1  0  0  0
 15 16  1  0  0  0
 16 11  2  0  0  0
 17 18  1  0  0  0
 19 28  1  0  0  0
 20 26  2  0  0  0
 22 14  1  0  0  0
 24  4  1  0  0  0
 26  8  1  0  0  0
 26 19  1  0  0  0
 26 21  2  0  0  0
 27 19  1  0  0  0
M  END
>  <CHROM.0>
-168.96270301,-79.57860940,-19.61180519,155.99197937,-175.40585075,-171.84286560
-67.40715706

>  <CHROM.1>
159.24861023,120.46599524,161.46801279,-159.84539283,-45.93442147,22.52055490
21.63258898,14.81145046,-1.47670997,-0.10066547,-1.15254108

>  <FORMUL>
      S58    C16 H11 Br1 F3 N3 O2 S1

>  <HET>
 S58  A 701      28

>  <HETNAM>
     S58 1-PHENYLSULFONAMIDE-3-TRIFLUOROMETHYL-5-PARABROMOPHENYL
   2 S58 PYRAZOLE

>  <Name>
S58.pdb

>  <RI>
0

>  <Rbt.Current_Directory>
/home/malgorzata/Desktop/rDOCK_IFD/Wyniki/3_COX2/IFD

>  <Rbt.Executable>
rbdock ($Id: //depot/dev/client3/rdock/2013.1/src/exe/rbdock.cxx#4 $)

>  <Rbt.Library>
libRbt.so (2013.1, Build901 2013/11/27)

>  <Rbt.Parameter_File>
/home/malgorzata/Desktop/rDock_2013.1_src/data/scripts/hard_docking.prm

>  <Rbt.Receptor>
cavity.prm

>  <SCORE>
-24.417

>  <SCORE.INTER>
-23.9282

>  <SCORE.INTER.CONST>
1

>  <SCORE.INTER.POLAR>
-1.5136

>  <SCORE.INTER.REPUL>
0

>  <SCORE.INTER.ROT>
5

>  <SCORE.INTER.VDW>
-29.182

>  <SCORE.INTER.norm>
-0.920316

>  <SCORE.INTRA>
-1.0959

>  <SCORE.INTRA.DIHEDRAL>
-5.33713

>  <SCORE.INTRA.DIHEDRAL.0>
18.1022

>  <SCORE.INTRA.POLAR>
0

>  <SCORE.INTRA.POLAR.0>
0

>  <SCORE.INTRA.REPUL>
0

>  <SCORE.INTRA.REPUL.0>
0

>  <SCORE.INTRA.VDW>
1.57267

>  <SCORE.INTRA.VDW.0>
-2.81782

>  <SCORE.INTRA.norm>
-0.0421499

>  <SCORE.RESTR>
3.6128

>  <SCORE.RESTR.CAVITY>
3.6128

>  <SCORE.RESTR.norm>
0.138954

>  <SCORE.SYSTEM>
-3.00565

>  <SCORE.SYSTEM.CONST>
0

>  <SCORE.SYSTEM.DIHEDRAL>
3.32874

>  <SCORE.SYSTEM.POLAR>
-0.703256

>  <SCORE.SYSTEM.VDW>
-2.27895

>  <SCORE.SYSTEM.norm>
-0.115602

>  <SCORE.heavy>
26

>  <SCORE.norm>
-0.939114

$$$$
S58.pdb
  rDOCK(R)          3D
libRbt.so/2013.1/901 2013/11/27
 28 30  0  0  0  0  0  0  0  0999 V2000
   23.3837   22.0960   13.4725 C   0  0  0  0  0  0
   24.0611   23.1149   12.8747 C   0  0  0  0  0  0
   23.9791   21.9448   14.8318 C   0  0  0  0  0  0
   23.6752   20.9127   15.8763 C   0  0  0  0  0  0
   25.6692   24.7988   13.7194 C   0  0  0  0  0  0
   26.8478   24.8970   14.4697 C   0  0  0  0  0  0
   27.5953   26.0641   14.4172 C   0  0  0  0  0  0
   27.1599   27.1363   13.6049 C   0  0  0  0  0  0
   25.9778   27.0339   12.8525 C   0  0  0  0  0  0
   25.2272   25.8572   12.9136 C   0  0  0  0  0  0
   23.8345   23.5744   11.4702 C   0  0  0  0  0  0
   22.5124   23.8191   11.0195 C   0  0  0  0  0  0
   22.2912   24.3939    9.7542 C   0  0  0  0  0  0
   23.3739   24.7278    8.9450 C   0  0  0  0  0  0
   24.6798   24.4611    9.3708 C   0  0  0  0  0  0
   24.9146   23.8827   10.6405 C   0  0  0  0  0  0
   24.9972   23.6044   13.7570 N   0  0  0  0  0  0
   24.9045   22.8547   14.9706 N   0  0  0  0  0  0
   27.6545   29.5340   12.0706 N   0  0  0  0  0  0
   29.5314   28.3322   13.4971 O   0  0  0  0  0  0
   27.8520   29.4495   14.6882 O   0  0  0  0  0  0
   23.0825   25.6729    7.3863 Br  0  0  0  0  0  0
   22.3320   20.8262   16.0453 F   0  0  0  0  0  0
   24.3011   21.2237   17.0222 F   0  0  0  0  0  0
   24.1306   19.7347   15.4355 F   0  0  0  0  0  0
   28.1432   28.6697   13.5181 S   0  0  0  0  0  0
   27.4858   29.0396   11.2445 H   0  0  0  0  0  0
   27.5483   30.5095   12.0905 H   0  0  0  0  0  0
  1  3  1  0  0  0
  2  1  2  0  0  0
  2 17  1  0  0  0
  3 18  2  0  0  0
  3  4  1  0  0  0
  4 23  1  0  0  0
  4 25  1  0  0  0
  5 17  1  0  0  0
  5  6  2  0  0  0
  7  6  1  0  0  0
  8  7  2  0  0  0
  9 10  2  0  0  0
  9  8  1  0  0  0
 10  5  1  0  0  0
 11  2  1  0  0  0
 12 11  1  0  0  0
 13 12  2  0  0  0
 14 15  2  0  0  0
 14 13  1  0  0  0
 15 16  1  0  0  0
 16 11  2  0  0  0
 17 18  1  0  0  0
 19 28  1  0  0  0
 20 26  2  0  0  0
 22 14  1  0  0  0
 24  4  1  0  0  0
 26  8  1  0  0  0
 26 19  1  0  0  0
 26 21  2  0  0  0
 27 19  1  0  0  0
M  END
>  <CHROM.0>
-179.75593387,-80.54625790,-145.09056397,151.24917790,-56.61823706,7.00609815
-68.15778215

>  <CHROM.1>
-49.21042693,-160.55256995,48.52959932,161.17274047,-40.57250730,24.92526345
24.84388106,12.33804313,1.70759061,0.85454520,2.16368540

>  <FORMUL>
      S58    C16 H11 Br1 F3 N3 O2 S1

>  <HET>
 S58  A 701      28

>  <HETNAM>
     S58 1-PHENYLSULFONAMIDE-3-TRIFLUOROMETHYL-5-PARABROMOPHENYL
   2 S58 PYRAZOLE

>  <Name>
S58.pdb

>  <RI>
0

>  <Rbt.Current_Directory>
/home/malgorzata/Desktop/rDOCK_IFD/Wyniki/3_COX2/IFD

>  <Rbt.Executable>
rbdock ($Id: //depot/dev/client3/rdock/2013.1/src/exe/rbdock.cxx#4 $)

>  <Rbt.Library>
libRbt.so (2013.1, Build901 2013/11/27)

>  <Rbt.Parameter_File>
/home/malgorzata/Desktop/rDock_2013.1_src/data/scripts/hard_docking.prm

>  <Rbt.Receptor>
cavity.prm

>  <SCORE>
-32.0497

>  <SCORE.INTER>
-22.4567

>  <SCORE.INTER.CONST>
1

>  <SCORE.INTER.POLAR>
-0.774597

>  <SCORE.INTER.REPUL>
0

>  <SCORE.INTER.ROT>
5

>  <SCORE.INTER.VDW>
-30.2231

>  <SCORE.INTER.norm>
-0.863719

>  <SCORE.INTRA>
-2.61762

>  <SCORE.INTRA.DIHEDRAL>
-5.69618

>  <SCORE.INTRA.DIHEDRAL.0>
18.1022

>  <SCORE.INTRA.POLAR>
0

>  <SCORE.INTRA.POLAR.0>
0

>  <SCORE.INTRA.REPUL>
0

>  <SCORE.INTRA.REPUL.0>
0

>  <SCORE.INTRA.VDW>
0.230473

>  <SCORE.INTRA.VDW.0>
-2.81782

>  <SCORE.INTRA.norm>
-0.100678

>  <SCORE.RESTR>
0

>  <SCORE.RESTR.CAVITY>
0

>  <SCORE.RESTR.norm>
0

>  <SCORE.SYSTEM>
-6.97542

>  <SCORE.SYSTEM.CONST>
0

>  <SCORE.SYSTEM.DIHEDRAL>
4.31226

>  <SCORE.SYSTEM.POLAR>
-1.80693

>  <SCORE.SYSTEM.VDW>
-2.98799

>  <SCORE.SYSTEM.norm>
-0.268285

>  <SCORE.heavy>
26

>  <SCORE.norm>
-1.23268

$$$$
S58.pdb
  rDOCK(R)          3D
libRbt.so/2013.1/901 2013/11/27
 28 30  0  0  0  0  0  0  0  0999 V2000
   23.1982   22.1673   13.4604 C   0  0  0  0  0  0
   23.9314   23.1340   12.8422 C   0  0  0  0  0  0
   23.8086   21.9840   14.8091 C   0  0  0  0  0  0
   23.4558   20.9813   15.8668 C   0  0  0  0  0  0
   25.6666   24.7095   13.6435 C   0  0  0  0  0  0
   25.1931   25.7470   12.8304 C   0  0  0  0  0  0
   25.8853   26.9479   12.7835 C   0  0  0  0  0  0
   27.0562   27.1098   13.5592 C   0  0  0  0  0  0
   27.5278   26.0674   14.3747 C   0  0  0  0  0  0
   26.8283   24.8588   14.4138 C   0  0  0  0  0  0
   23.7091   23.5994   11.4391 C   0  0  0  0  0  0
   22.4090   23.9915   11.0303 C   0  0  0  0  0  0
   22.2105   24.5725    9.7641 C   0  0  0  0  0  0
   23.2947   24.7673    8.9125 C   0  0  0  0  0  0
   24.5752   24.3550    9.2972 C   0  0  0  0  0  0
   24.7869   23.7689   10.5675 C   0  0  0  0  0  0
   24.9158   23.5640   13.7028 N   0  0  0  0  0  0
   24.7963   22.8296   14.9235 N   0  0  0  0  0  0
   27.0452   29.8061   12.5212 N   0  0  0  0  0  0
   29.2743   28.4597   12.9903 O   0  0  0  0  0  0
   28.0631   29.1825   14.8607 O   0  0  0  0  0  0
   23.0590   25.7206    7.3494 Br  0  0  0  0  0  0
   23.9536   19.7681   15.5199 F   0  0  0  0  0  0
   22.1246   20.9427   16.0342 F   0  0  0  0  0  0
   24.0289   21.3711   17.0109 F   0  0  0  0  0  0
   27.9656   28.6900   13.5153 S   0  0  0  0  0  0
   26.3508   29.4642   11.9244 H   0  0  0  0  0  0
   27.2246   30.7699   12.5658 H   0  0  0  0  0  0
  1  3  1  0  0  0
  2  1  2  0  0  0
  2 17  1  0  0  0
  3 18  2  0  0  0
  3  4  1  0  0  0
  4 23  1  0  0  0
  4 25  1  0  0  0
  5 17  1  0  0  0
  5  6  2  0  0  0
  7  6  1  0  0  0
  8  7  2  0  0  0
  9 10  2  0  0  0
  9  8  1  0  0  0
 10  5  1  0  0  0
 11  2  1  0  0  0
 12 11  1  0  0  0
 13 12  2  0  0  0
 14 15  2  0  0  0
 14 13  1  0  0  0
 15 16  1  0  0  0
 16 11  2  0  0  0
 17 18  1  0  0  0
 19 28  1  0  0  0
 20 26  2  0  0  0
 22 14  1  0  0  0
 24  4  1  0  0  0
 26  8  1  0  0  0
 26 19  1  0  0  0
 26 21  2  0  0  0
 27 19  1  0  0  0
M  END
>  <CHROM.0>
-6.22755681,81.63801860,-147.17834391,125.89076164,-55.79496054,4.87792967
-68.78416614

>  <CHROM.1>
76.05037288,17.64880044,51.51731271,4.39310305,-16.60570113,24.80416081,24.87077227
12.31740394,1.71605826,0.85933270,2.14574819

>  <FORMUL>
      S58    C16 H11 Br1 F3 N3 O2 S1

>  <HET>
 S58  A 701      28

>  <HETNAM>
     S58 1-PHENYLSULFONAMIDE-3-TRIFLUOROMETHYL-5-PARABROMOPHENYL
   2 S58 PYRAZOLE

>  <Name>
S58.pdb

>  <RI>
0

>  <Rbt.Current_Directory>
/home/malgorzata/Desktop/rDOCK_IFD/Wyniki/3_COX2/IFD

>  <Rbt.Executable>
rbdock ($Id: //depot/dev/client3/rdock/2013.1/src/exe/rbdock.cxx#4 $)

>  <Rbt.Library>
libRbt.so (2013.1, Build901 2013/11/27)

>  <Rbt.Parameter_File>
/home/malgorzata/Desktop/rDock_2013.1_src/data/scripts/hard_docking.prm

>  <Rbt.Receptor>
cavity.prm

>  <SCORE>
-33.3806

>  <SCORE.INTER>
-23.8475

>  <SCORE.INTER.CONST>
1

>  <SCORE.INTER.POLAR>
-0.817031

>  <SCORE.INTER.REPUL>
0

>  <SCORE.INTER.ROT>
5

>  <SCORE.INTER.VDW>
-31.4696

>  <SCORE.INTER.norm>
-0.917212

>  <SCORE.INTRA>
-2.23671

>  <SCORE.INTRA.DIHEDRAL>
-5.3349

>  <SCORE.INTRA.DIHEDRAL.0>
18.1022

>  <SCORE.INTRA.POLAR>
0

>  <SCORE.INTRA.POLAR.0>
0

>  <SCORE.INTRA.REPUL>
0

>  <SCORE.INTRA.REPUL.0>
0

>  <SCORE.INTRA.VDW>
0.430737

>  <SCORE.INTRA.VDW.0>
-2.81782

>  <SCORE.INTRA.norm>
-0.0860274

>  <SCORE.RESTR>
0

>  <SCORE.RESTR.CAVITY>
0

>  <SCORE.RESTR.norm>
0

>  <SCORE.SYSTEM>
-7.29637

>  <SCORE.SYSTEM.CONST>
0

>  <SCORE.SYSTEM.DIHEDRAL>
4.42759

>  <SCORE.SYSTEM.POLAR>
-1.82608

>  <SCORE.SYSTEM.VDW>
-3.30151

>  <SCORE.SYSTEM.norm>
-0.28063

>  <SCORE.heavy>
26

>  <SCORE.norm>
-1.28387

$$$$
S58.pdb
  rDOCK(R)          3D
libRbt.so/2013.1/901 2013/11/27
 28 30  0  0  0  0  0  0  0  0999 V2000
   24.2544   23.6541   13.1831 C   0  0  0  0  0  0
   25.1428   23.1579   14.0879 C   0  0  0  0  0  0
   23.1210   22.6851   13.1418 C   0  0  0  0  0  0
   21.9166   22.6923   12.2486 C   0  0  0  0  0  0
   25.0158   21.3254   15.7496 C   0  0  0  0  0  0
   25.5178   22.0965   16.8055 C   0  0  0  0  0  0
   25.8564   21.4795   18.0006 C   0  0  0  0  0  0
   25.6870   20.0825   18.1379 C   0  0  0  0  0  0
   25.1820   19.3122   17.0769 C   0  0  0  0  0  0
   24.8472   19.9394   15.8744 C   0  0  0  0  0  0
   26.4642   23.7799   14.4074 C   0  0  0  0  0  0
   26.6378   25.1773   14.2396 C   0  0  0  0  0  0
   27.8215   25.8007   14.6762 C   0  0  0  0  0  0
   28.8225   25.0437   15.2790 C   0  0  0  0  0  0
   28.6706   23.6600   15.4201 C   0  0  0  0  0  0
   27.4854   23.0220   14.9841 C   0  0  0  0  0  0
   24.6390   21.9883   14.6102 N   0  0  0  0  0  0
   23.3702   21.7357   14.0021 N   0  0  0  0  0  0
   25.4749   17.6311   19.6522 N   0  0  0  0  0  0
   25.5661   20.0171   20.7925 O   0  0  0  0  0  0
   27.5478   19.2352   19.8181 O   0  0  0  0  0  0
   30.2720   25.8987   16.0379 Br  0  0  0  0  0  0
   21.7395   23.9385   11.7429 F   0  0  0  0  0  0
   20.8387   22.2753   12.9310 F   0  0  0  0  0  0
   22.1484   21.8465   11.2385 F   0  0  0  0  0  0
   26.1162   19.2640   19.7100 S   0  0  0  0  0  0
   24.8582   17.3775   18.9375 H   0  0  0  0  0  0
   25.7360   16.9739   20.3327 H   0  0  0  0  0  0
  1  3  1  0  0  0
  2  1  2  0  0  0
  2 17  1  0  0  0
  3 18  2  0  0  0
  3  4  1  0  0  0
  4 23  1  0  0  0
  4 25  1  0  0  0
  5 17  1  0  0  0
  5  6  2  0  0  0
  7  6  1  0  0  0
  8  7  2  0  0  0
  9 10  2  0  0  0
  9  8  1  0  0  0
 10  5  1  0  0  0
 11  2  1  0  0  0
 12 11  1  0  0  0
 13 12  2  0  0  0
 14 15  2  0  0  0
 14 13  1  0  0  0
 15 16  1  0  0  0
 16 11  2  0  0  0
 17 18  1  0  0  0
 19 28  1  0  0  0
 20 26  2  0  0  0
 22 14  1  0  0  0
 24  4  1  0  0  0
 26  8  1  0  0  0
 26 19  1  0  0  0
 26 21  2  0  0  0
 27 19  1  0  0  0
M  END
>  <CHROM.0>
-165.16830767,66.65983591,-25.77565170,157.04112881,-56.18978215,-166.55701571
-65.80922828

>  <CHROM.1>
-19.81961530,30.03978409,27.21891295,168.22733276,-10.84437187,26.01260531
22.55891105,15.74224834,-3.00900886,0.54415638,2.32107109

>  <FORMUL>
      S58    C16 H11 Br1 F3 N3 O2 S1

>  <HET>
 S58  A 701      28

>  <HETNAM>
     S58 1-PHENYLSULFONAMIDE-3-TRIFLUOROMETHYL-5-PARABROMOPHENYL
   2 S58 PYRAZOLE

>  <Name>
S58.pdb

>  <RI>
0

>  <Rbt.Current_Directory>
/home/malgorzata/Desktop/rDOCK_IFD/Wyniki/3_COX2/IFD

>  <Rbt.Executable>
rbdock ($Id: //depot/dev/client3/rdock/2013.1/src/exe/rbdock.cxx#4 $)

>  <Rbt.Library>
libRbt.so (2013.1, Build901 2013/11/27)

>  <Rbt.Parameter_File>
/home/malgorzata/Desktop/rDock_2013.1_src/data/scripts/hard_docking.prm

>  <Rbt.Receptor>
cavity.prm

>  <SCORE>
0.578444

>  <SCORE.INTER>
11.2326

>  <SCORE.INTER.CONST>
1

>  <SCORE.INTER.POLAR>
0

>  <SCORE.INTER.REPUL>
0

>  <SCORE.INTER.ROT>
5

>  <SCORE.INTER.VDW>
0.832557

>  <SCORE.INTER.norm>
0.432021

>  <SCORE.INTRA>
-2.78817

>  <SCORE.INTRA.DIHEDRAL>
-7.95365

>  <SCORE.INTRA.DIHEDRAL.0>
18.1022

>  <SCORE.INTRA.POLAR>
0

>  <SCORE.INTRA.POLAR.0>
0

>  <SCORE.INTRA.REPUL>
0

>  <SCORE.INTRA.REPUL.0>
0

>  <SCORE.INTRA.VDW>
1.18865

>  <SCORE.INTRA.VDW.0>
-2.81782

>  <SCORE.INTRA.norm>
-0.107237

>  <SCORE.RESTR>
0.124168

>  <SCORE.RESTR.CAVITY>
0.124168

>  <SCORE.RESTR.norm>
0.00477571

>  <SCORE.SYSTEM>
-7.99011

>  <SCORE.SYSTEM.CONST>
0

>  <SCORE.SYSTEM.DIHEDRAL>
2.3453

>  <SCORE.SYSTEM.POLAR>
-1.78302

>  <SCORE.SYSTEM.VDW>
-3.10051

>  <SCORE.SYSTEM.norm>
-0.307312

>  <SCORE.heavy>
26

>  <SCORE.norm>
0.0222478

$$$$
S58.pdb
  rDOCK(R)          3D
libRbt.so/2013.1/901 2013/11/27
 28 30  0  0  0  0  0  0  0  0999 V2000
   26.3643   13.6165   22.2369 C   0  0  0  0  0  0
   26.6283   14.5656   21.2968 C   0  0  0  0  0  0
   26.0401   14.3557   23.4914 C   0  0  0  0  0  0
   25.7653   13.8029   24.8580 C   0  0  0  0  0  0
   26.3227   17.0231   21.2455 C   0  0  0  0  0  0
   26.2138   18.1540   22.0645 C   0  0  0  0  0  0
   26.1197   19.4104   21.4847 C   0  0  0  0  0  0
   26.1388   19.5327   20.0763 C   0  0  0  0  0  0
   26.2494   18.3963   19.2577 C   0  0  0  0  0  0
   26.3392   17.1334   19.8481 C   0  0  0  0  0  0
   27.0594   14.2738   19.8954 C   0  0  0  0  0  0
   28.1494   14.9880   19.3363 C   0  0  0  0  0  0
   28.6635   14.6234   18.0781 C   0  0  0  0  0  0
   28.1032   13.5551   17.3828 C   0  0  0  0  0  0
   27.0081   12.8655   17.9148 C   0  0  0  0  0  0
   26.4821   13.2236   19.1785 C   0  0  0  0  0  0
   26.4736   15.8096   21.8653 N   0  0  0  0  0  0
   26.0942   15.6338   23.2323 N   0  0  0  0  0  0
   25.4112   20.9670   17.6760 N   0  0  0  0  0  0
   27.3250   21.7848   19.3102 O   0  0  0  0  0  0
   25.1220   21.9760   20.0835 O   0  0  0  0  0  0
   28.9173   12.9517   15.8398 Br  0  0  0  0  0  0
   26.5775   12.7404   25.0848 F   0  0  0  0  0  0
   24.4695   13.4693   24.9641 F   0  0  0  0  0  0
   26.0453   14.7578   25.7520 F   0  0  0  0  0  0
   26.0298   21.1815   19.3046 S   0  0  0  0  0  0
   24.4651   21.1290   17.4916 H   0  0  0  0  0  0
   26.0127   20.6881   16.9524 H   0  0  0  0  0  0
  1  3  1  0  0  0
  2  1  2  0  0  0
  2 17  1  0  0  0
  3 18  2  0  0  0
  3  4  1  0  0  0
  4 23  1  0  0  0
  4 25  1  0  0  0
  5 17  1  0  0  0
  5  6  2  0  0  0
  7  6  1  0  0  0
  8  7  2  0  0  0
  9 10  2  0  0  0
  9  8  1  0  0  0
 10  5  1  0  0  0
 11  2  1  0  0  0
 12 11  1  0  0  0
 13 12  2  0  0  0
 14 15  2  0  0  0
 14 13  1  0  0  0
 15 16  1  0  0  0
 16 11  2  0  0  0
 17 18  1  0  0  0
 19 28  1  0  0  0
 20 26  2  0  0  0
 22 14  1  0  0  0
 24  4  1  0  0  0
 26  8  1  0  0  0
 26 19  1  0  0  0
 26 21  2  0  0  0
 27 19  1  0  0  0
M  END
>  <CHROM.0>
-176.99187495,-178.66586171,-142.74934736,12.33916739,-57.71733459,1.85892068
63.30118580

>  <CHROM.1>
37.61276592,-178.55057565,-133.43748085,-156.55603051,99.54160755,26.82842954
15.93132777,20.13501847,0.37261071,-1.21429458,2.58370862

>  <FORMUL>
      S58    C16 H11 Br1 F3 N3 O2 S1

>  <HET>
 S58  A 701      28

>  <HETNAM>
     S58 1-PHENYLSULFONAMIDE-3-TRIFLUOROMETHYL-5-PARABROMOPHENYL
   2 S58 PYRAZOLE

>  <Name>
S58.pdb

>  <RI>
0

>  <Rbt.Current_Directory>
/home/malgorzata/Desktop/rDOCK_IFD/Wyniki/3_COX2/IFD

>  <Rbt.Executable>
rbdock ($Id: //depot/dev/client3/rdock/2013.1/src/exe/rbdock.cxx#4 $)

>  <Rbt.Library>
libRbt.so (2013.1, Build901 2013/11/27)

>  <Rbt.Parameter_File>
/home/malgorzata/Desktop/rDock_2013.1_src/data/scripts/hard_docking.prm

>  <Rbt.Receptor>
cavity.prm

>  <SCORE>
-6.3692

>  <SCORE.INTER>
-12.5095

>  <SCORE.INTER.CONST>
1

>  <SCORE.INTER.POLAR>
0

>  <SCORE.INTER.REPUL>
0

>  <SCORE.INTER.ROT>
5

>  <SCORE.INTER.VDW>
-22.9095

>  <SCORE.INTER.norm>
-0.481135

>  <SCORE.INTRA>
-2.83644

>  <SCORE.INTRA.DIHEDRAL>
-8.508

>  <SCORE.INTRA.DIHEDRAL.0>
18.1022

>  <SCORE.INTRA.POLAR>
0

>  <SCORE.INTRA.POLAR.0>
0

>  <SCORE.INTRA.REPUL>
0

>  <SCORE.INTRA.REPUL.0>
0

>  <SCORE.INTRA.VDW>
1.41756

>  <SCORE.INTRA.VDW.0>
-2.81782

>  <SCORE.INTRA.norm>
-0.109094

>  <SCORE.RESTR>
14.6061

>  <SCORE.RESTR.CAVITY>
14.6061

>  <SCORE.RESTR.norm>
0.561771

>  <SCORE.SYSTEM>
-5.6293

>  <SCORE.SYSTEM.CONST>
0

>  <SCORE.SYSTEM.DIHEDRAL>
2.26422

>  <SCORE.SYSTEM.POLAR>
-1.07839

>  <SCORE.SYSTEM.VDW>
-3.09489

>  <SCORE.SYSTEM.norm>
-0.216511

>  <SCORE.heavy>
26

>  <SCORE.norm>
-0.244969

$$$$
S58.pdb
  rDOCK(R)          3D
libRbt.so/2013.1/901 2013/11/27
 28 30  0  0  0  0  0  0  0  0999 V2000
   23.6033   22.4591   12.7110 C   0  0  0  0  0  0
   24.4044   23.1832   13.5406 C   0  0  0  0  0  0
   23.0247   23.4332   11.7406 C   0  0  0  0  0  0
   22.0045   23.1912   10.6686 C   0  0  0  0  0  0
   25.2463   25.5115   13.4681 C   0  0  0  0  0  0
   26.1683   25.9019   12.4886 C   0  0  0  0  0  0
   27.0293   26.9588   12.7441 C   0  0  0  0  0  0
   26.9622   27.6294   13.9870 C   0  0  0  0  0  0
   26.0353   27.2359   14.9668 C   0  0  0  0  0  0
   25.1741   26.1676   14.7047 C   0  0  0  0  0  0
   25.1448   22.6182   14.7101 C   0  0  0  0  0  0
   24.5504   21.5879   15.4823 C   0  0  0  0  0  0
   25.2906   20.9422   16.4900 C   0  0  0  0  0  0
   26.6118   21.3128   16.7257 C   0  0  0  0  0  0
   27.1948   22.3491   15.9882 C   0  0  0  0  0  0
   26.4601   23.0063   14.9731 C   0  0  0  0  0  0
   24.3766   24.5017   13.1465 N   0  0  0  0  0  0
   23.5135   24.6125   12.0124 N   0  0  0  0  0  0
   29.7044   28.5334   13.8821 N   0  0  0  0  0  0
   27.9864   29.3752   15.7101 O   0  0  0  0  0  0
   27.6582   30.1396   13.5202 O   0  0  0  0  0  0
   27.6360   20.3197   17.8973 Br  0  0  0  0  0  0
   22.6367   22.9430    9.4943 F   0  0  0  0  0  0
   21.1800   24.2462   10.5755 F   0  0  0  0  0  0
   21.2946   22.1108   11.0124 F   0  0  0  0  0  0
   28.0805   29.0293   14.3270 S   0  0  0  0  0  0
   29.9096   27.5835   13.7775 H   0  0  0  0  0  0
   30.4035   29.2066   13.7362 H   0  0  0  0  0  0
  1  3  1  0  0  0
  2  1  2  0  0  0
  2 17  1  0  0  0
  3 18  2  0  0  0
  3  4  1  0  0  0
  4 23  1  0  0  0
  4 25  1  0  0  0
  5 17  1  0  0  0
  5  6  2  0  0  0
  7  6  1  0  0  0
  8  7  2  0  0  0
  9 10  2  0  0  0
  9  8  1  0  0  0
 10  5  1  0  0  0
 11  2  1  0  0  0
 12 11  1  0  0  0
 13 12  2  0  0  0
 14 15  2  0  0  0
 14 13  1  0  0  0
 15 16  1  0  0  0
 16 11  2  0  0  0
 17 18  1  0  0  0
 19 28  1  0  0  0
 20 26  2  0  0  0
 22 14  1  0  0  0
 24  4  1  0  0  0
 26  8  1  0  0  0
 26 19  1  0  0  0
 26 21  2  0  0  0
 27 19  1  0  0  0
M  END
>  <CHROM.0>
-168.32251916,-79.10153975,-146.30893911,131.46589364,-55.40520197,-174.35554486
-177.70345963

>  <CHROM.1>
-94.37424978,103.93115537,-35.89510793,-48.05966328,-17.87152254,25.72615978
24.18497724,14.25435102,1.52793314,0.74981312,2.68366647

>  <FORMUL>
      S58    C16 H11 Br1 F3 N3 O2 S1

>  <HET>
 S58  A 701      28

>  <HETNAM>
     S58 1-PHENYLSULFONAMIDE-3-TRIFLUOROMETHYL-5-PARABROMOPHENYL
   2 S58 PYRAZOLE

>  <Name>
S58.pdb

>  <RI>
0

>  <Rbt.Current_Directory>
/home/malgorzata/Desktop/rDOCK_IFD/Wyniki/3_COX2/IFD

>  <Rbt.Executable>
rbdock ($Id: //depot/dev/client3/rdock/2013.1/src/exe/rbdock.cxx#4 $)

>  <Rbt.Library>
libRbt.so (2013.1, Build901 2013/11/27)

>  <Rbt.Parameter_File>
/home/malgorzata/Desktop/rDock_2013.1_src/data/scripts/hard_docking.prm

>  <Rbt.Receptor>
cavity.prm

>  <SCORE>
-14.5594

>  <SCORE.INTER>
-10.8965

>  <SCORE.INTER.CONST>
1

>  <SCORE.INTER.POLAR>
-0.824621

>  <SCORE.INTER.REPUL>
0

>  <SCORE.INTER.ROT>
5

>  <SCORE.INTER.VDW>
-18.4928

>  <SCORE.INTER.norm>
-0.419098

>  <SCORE.INTRA>
0.199519

>  <SCORE.INTRA.DIHEDRAL>
1.0128

>  <SCORE.INTRA.DIHEDRAL.0>
18.1022

>  <SCORE.INTRA.POLAR>
0

>  <SCORE.INTRA.POLAR.0>
0

>  <SCORE.INTRA.REPUL>
0

>  <SCORE.INTRA.REPUL.0>
0

>  <SCORE.INTRA.VDW>
-0.306881

>  <SCORE.INTRA.VDW.0>
-2.81782

>  <SCORE.INTRA.norm>
0.00767381

>  <SCORE.RESTR>
0.50838

>  <SCORE.RESTR.CAVITY>
0.50838

>  <SCORE.RESTR.norm>
0.0195531

>  <SCORE.SYSTEM>
-4.37074

>  <SCORE.SYSTEM.CONST>
0

>  <SCORE.SYSTEM.DIHEDRAL>
3.9029

>  <SCORE.SYSTEM.POLAR>
-1.10689

>  <SCORE.SYSTEM.REPUL>
0.0643189

>  <SCORE.SYSTEM.VDW>
-2.88035

>  <SCORE.SYSTEM.norm>
-0.168105

>  <SCORE.heavy>
26

>  <SCORE.norm>
-0.559976

$$$$
S58.pdb
  rDOCK(R)          3D
libRbt.so/2013.1/901 2013/11/27
 28 30  0  0  0  0  0  0  0  0999 V2000
   25.4442   21.3922   15.7077 C   0  0  0  0  0  0
   24.1921   21.6764   15.2540 C   0  0  0  0  0  0
   25.2708   20.8431   17.0839 C   0  0  0  0  0  0
   26.3263   20.4560   18.0761 C   0  0  0  0  0  0
   21.9268   21.1392   16.0994 C   0  0  0  0  0  0
   21.3868   19.9786   16.6679 C   0  0  0  0  0  0
   20.0166   19.7691   16.6210 C   0  0  0  0  0  0
   19.1839   20.7308   16.0039 C   0  0  0  0  0  0
   19.7287   21.8945   15.4357 C   0  0  0  0  0  0
   21.1102   22.0970   15.4824 C   0  0  0  0  0  0
   23.8923   22.3053   13.9313 C   0  0  0  0  0  0
   24.8315   23.1959   13.3518 C   0  0  0  0  0  0
   24.6360   23.6779   12.0442 C   0  0  0  0  0  0
   23.5198   23.2750   11.3160 C   0  0  0  0  0  0
   22.5737   22.4206   11.8926 C   0  0  0  0  0  0
   22.7590   21.9302   13.2068 C   0  0  0  0  0  0
   23.2786   21.3304   16.2237 N   0  0  0  0  0  0
   23.9924   20.8029   17.3443 N   0  0  0  0  0  0
   16.7505   20.7684   17.5611 N   0  0  0  0  0  0
   17.1138   19.1385   15.5084 O   0  0  0  0  0  0
   16.8249   21.4104   15.0155 O   0  0  0  0  0  0
   23.3839   23.7404    9.5348 Br  0  0  0  0  0  0
   27.3840   21.2972   17.9583 F   0  0  0  0  0  0
   26.6855   19.1768   17.8859 F   0  0  0  0  0  0
   25.8066   20.5864   19.3017 F   0  0  0  0  0  0
   17.3796   20.4713   15.9496 S   0  0  0  0  0  0
   17.3673   20.9616   18.2943 H   0  0  0  0  0  0
   15.7833   20.7434   17.7257 H   0  0  0  0  0  0
  1  3  1  0  0  0
  2  1  2  0  0  0
  2 17  1  0  0  0
  3 18  2  0  0  0
  3  4  1  0  0  0
  4 23  1  0  0  0
  4 25  1  0  0  0
  5 17  1  0  0  0
  5  6  2  0  0  0
  7  6  1  0  0  0
  8  7  2  0  0  0
  9 10  2  0  0  0
  9  8  1  0  0  0
 10  5  1  0  0  0
 11  2  1  0  0  0
 12 11  1  0  0  0
 13 12  2  0  0  0
 14 15  2  0  0  0
 14 13  1  0  0  0
 15 16  1  0  0  0
 16 11  2  0  0  0
 17 18  1  0  0  0
 19 28  1  0  0  0
 20 26  2  0  0  0
 22 14  1  0  0  0
 24  4  1  0  0  0
 26  8  1  0  0  0
 26 19  1  0  0  0
 26 21  2  0  0  0
 27 19  1  0  0  0
M  END
>  <CHROM.0>
-174.43204462,-179.70336226,-143.39949113,-69.33317502,-55.50536457,1.90925258
61.96638701

>  <CHROM.1>
34.81162677,131.91204718,-29.92132968,74.13508842,-4.26191148,22.46769915
21.62116457,14.68683995,-1.03790720,0.09714748,1.97477179

>  <FORMUL>
      S58    C16 H11 Br1 F3 N3 O2 S1

>  <HET>
 S58  A 701      28

>  <HETNAM>
     S58 1-PHENYLSULFONAMIDE-3-TRIFLUOROMETHYL-5-PARABROMOPHENYL
   2 S58 PYRAZOLE

>  <Name>
S58.pdb

>  <RI>
0

>  <Rbt.Current_Directory>
/home/malgorzata/Desktop/rDOCK_IFD/Wyniki/3_COX2/IFD

>  <Rbt.Executable>
rbdock ($Id: //depot/dev/client3/rdock/2013.1/src/exe/rbdock.cxx#4 $)

>  <Rbt.Library>
libRbt.so (2013.1, Build901 2013/11/27)

>  <Rbt.Parameter_File>
/home/malgorzata/Desktop/rDock_2013.1_src/data/scripts/hard_docking.prm

>  <Rbt.Receptor>
cavity.prm

>  <SCORE>
-26.7645

>  <SCORE.INTER>
-23.5439

>  <SCORE.INTER.CONST>
1

>  <SCORE.INTER.POLAR>
-1.75498

>  <SCORE.INTER.REPUL>
0

>  <SCORE.INTER.ROT>
5

>  <SCORE.INTER.VDW>
-27.977

>  <SCORE.INTER.norm>
-0.905535

>  <SCORE.INTRA>
-1.50025

>  <SCORE.INTRA.DIHEDRAL>
-5.64788

>  <SCORE.INTRA.DIHEDRAL.0>
18.1022

>  <SCORE.INTRA.POLAR>
0

>  <SCORE.INTRA.POLAR.0>
0

>  <SCORE.INTRA.REPUL>
0

>  <SCORE.INTRA.REPUL.0>
0

>  <SCORE.INTRA.VDW>
1.32369

>  <SCORE.INTRA.VDW.0>
-2.81782

>  <SCORE.INTRA.norm>
-0.0577019

>  <SCORE.RESTR>
4.12953

>  <SCORE.RESTR.CAVITY>
4.12953

>  <SCORE.RESTR.norm>
0.158828

>  <SCORE.SYSTEM>
-5.84984

>  <SCORE.SYSTEM.CONST>
0

>  <SCORE.SYSTEM.DIHEDRAL>
2.27307

>  <SCORE.SYSTEM.POLAR>
-1.10813

>  <SCORE.SYSTEM.VDW>
-3.21872

>  <SCORE.SYSTEM.norm>
-0.224994

>  <SCORE.heavy>
26

>  <SCORE.norm>
-1.0294

$$$$
S58.pdb
  rDOCK(R)          3D
libRbt.so/2013.1/901 2013/11/27
 28 30  0  0  0  0  0  0  0  0999 V2000
   21.0491   20.2895   16.5430 C   0  0  0  0  0  0
   22.0998   20.8495   15.8821 C   0  0  0  0  0  0
   19.8186   20.8652   15.9268 C   0  0  0  0  0  0
   18.3888   20.6663   16.3324 C   0  0  0  0  0  0
   22.2657   22.2141   13.8217 C   0  0  0  0  0  0
   21.4916   22.5194   12.6951 C   0  0  0  0  0  0
   22.0943   23.1019   11.5900 C   0  0  0  0  0  0
   23.4797   23.3827   11.6172 C   0  0  0  0  0  0
   24.2530   23.0762   12.7494 C   0  0  0  0  0  0
   23.6405   22.4854   13.8573 C   0  0  0  0  0  0
   23.5370   20.6024   16.2113 C   0  0  0  0  0  0
   24.3274   21.6600   16.7287 C   0  0  0  0  0  0
   25.6351   21.4087   17.1839 C   0  0  0  0  0  0
   26.1521   20.1171   17.1305 C   0  0  0  0  0  0
   25.3888   19.0748   16.5931 C   0  0  0  0  0  0
   24.0732   19.3155   16.1315 C   0  0  0  0  0  0
   21.6144   21.6952   14.9107 N   0  0  0  0  0  0
   20.1862   21.6665   14.9642 N   0  0  0  0  0  0
   23.3911   23.6667    8.7433 N   0  0  0  0  0  0
   25.6471   23.7533   10.1235 O   0  0  0  0  0  0
   24.2039   25.5856   10.3419 O   0  0  0  0  0  0
   27.7803   19.7594   17.9235 Br  0  0  0  0  0  0
   18.3457   20.0520   17.5411 F   0  0  0  0  0  0
   17.7410   19.9598   15.3928 F   0  0  0  0  0  0
   17.8204   21.8723   16.4416 F   0  0  0  0  0  0
   24.2787   24.1613   10.1746 S   0  0  0  0  0  0
   23.0686   22.7472    8.6665 H   0  0  0  0  0  0
   23.2166   24.3109    8.0237 H   0  0  0  0  0  0
  1  3  1  0  0  0
  2  1  2  0  0  0
  2 17  1  0  0  0
  3 18  2  0  0  0
  3  4  1  0  0  0
  4 23  1  0  0  0
  4 25  1  0  0  0
  5 17  1  0  0  0
  5  6  2  0  0  0
  7  6  1  0  0  0
  8  7  2  0  0  0
  9 10  2  0  0  0
  9  8  1  0  0  0
 10  5  1  0  0  0
 11  2  1  0  0  0
 12 11  1  0  0  0
 13 12  2  0  0  0
 14 15  2  0  0  0
 14 13  1  0  0  0
 15 16  1  0  0  0
 16 11  2  0  0  0
 17 18  1  0  0  0
 19 28  1  0  0  0
 20 26  2  0  0  0
 22 14  1  0  0  0
 24  4  1  0  0  0
 26  8  1  0  0  0
 26 19  1  0  0  0
 26 21  2  0  0  0
 27 19  1  0  0  0
M  END
>  <CHROM.0>
-176.24198742,64.45751541,-23.31643911,154.75774637,-57.07222554,-149.29161102
-67.74484986

>  <CHROM.1>
11.29248039,151.55268853,-113.01171237,-29.55908815,-39.94095243,23.32743083
21.51886564,14.81549161,1.05185467,0.00042128,2.09094201

>  <FORMUL>
      S58    C16 H11 Br1 F3 N3 O2 S1

>  <HET>
 S58  A 701      28

>  <HETNAM>
     S58 1-PHENYLSULFONAMIDE-3-TRIFLUOROMETHYL-5-PARABROMOPHENYL
   2 S58 PYRAZOLE

>  <Name>
S58.pdb

>  <RI>
0

>  <Rbt.Current_Directory>
/home/malgorzata/Desktop/rDOCK_IFD/Wyniki/3_COX2/IFD

>  <Rbt.Executable>
rbdock ($Id: //depot/dev/client3/rdock/2013.1/src/exe/rbdock.cxx#4 $)

>  <Rbt.Library>
libRbt.so (2013.1, Build901 2013/11/27)

>  <Rbt.Parameter_File>
/home/malgorzata/Desktop/rDock_2013.1_src/data/scripts/hard_docking.prm

>  <Rbt.Receptor>
cavity.prm

>  <SCORE>
-18.3241

>  <SCORE.INTER>
-11.015

>  <SCORE.INTER.CONST>
1

>  <SCORE.INTER.POLAR>
-0.478328

>  <SCORE.INTER.REPUL>
0

>  <SCORE.INTER.ROT>
5

>  <SCORE.INTER.VDW>
-19.7887

>  <SCORE.INTER.norm>
-0.423653

>  <SCORE.INTRA>
-1.13249

>  <SCORE.INTRA.DIHEDRAL>
-3.07946

>  <SCORE.INTRA.DIHEDRAL.0>
18.1022

>  <SCORE.INTRA.POLAR>
0

>  <SCORE.INTRA.POLAR.0>
0

>  <SCORE.INTRA.REPUL>
0

>  <SCORE.INTRA.REPUL.0>
0

>  <SCORE.INTRA.VDW>
0.407242

>  <SCORE.INTRA.VDW.0>
-2.81782

>  <SCORE.INTRA.norm>
-0.0435573

>  <SCORE.RESTR>
1.50567

>  <SCORE.RESTR.CAVITY>
1.50567

>  <SCORE.RESTR.norm>
0.0579104

>  <SCORE.SYSTEM>
-7.68231

>  <SCORE.SYSTEM.CONST>
0

>  <SCORE.SYSTEM.DIHEDRAL>
2.85411

>  <SCORE.SYSTEM.POLAR>
-1.79532

>  <SCORE.SYSTEM.REPUL>
0.00305559

>  <SCORE.SYSTEM.VDW>
-3.02056

>  <SCORE.SYSTEM.norm>
-0.295473

>  <SCORE.heavy>
26

>  <SCORE.norm>
-0.704773

$$$$
