HMD.pdb
 OpenBabel02222112243D

 29 31  0  0  0  0  0  0  0  0999 V2000
   23.1200   26.8710   28.1360 Br  0  0  0  0  0  0  0  0  0  0  0  0
   25.1840   31.3200   30.2860 O   0  0  0  0  0  0  0  0  0  0  0  0
   30.5370   29.9590   25.4670 O   0  0  0  0  0  0  0  0  0  0  0  0
   24.5420   29.1570   28.7920 N   0  0  0  0  0  0  0  0  0  0  0  0
   26.7440   32.0690   28.7860 N   0  0  0  0  0  0  0  0  0  0  0  0
   29.8580   28.1070   24.2840 N   0  0  0  0  0  0  0  0  0  0  0  0
   27.9500   27.6500   25.3760 N   0  0  0  0  0  0  0  0  0  0  0  0
   28.5480   26.2710   23.6020 N   0  0  0  0  0  0  0  0  0  0  0  0
   24.5650   28.0270   28.0820 C   0  0  0  0  0  0  0  0  0  0  0  0
   25.7290   27.9080   27.3810 C   0  0  0  0  0  0  0  0  0  0  0  0
   26.4900   29.0720   27.6720 C   0  0  0  0  0  0  0  0  0  0  0  0
   25.6920   29.8330   28.5810 C   0  0  0  0  0  0  0  0  0  0  0  0
   25.8600   31.1210   29.2680 C   0  0  0  0  0  0  0  0  0  0  0  0
   27.6150   31.9880   27.6010 C   0  0  0  0  0  0  0  0  0  0  0  0
   28.5210   30.7700   27.6000 C   0  0  0  0  0  0  0  0  0  0  0  0
   27.8380   29.5180   27.0570 C   0  0  0  0  0  0  0  0  0  0  0  0
   28.4320   28.8050   26.0100 C   0  0  0  0  0  0  0  0  0  0  0  0
   29.7250   29.0460   25.2510 C   0  0  0  0  0  0  0  0  0  0  0  0
   28.7890   27.3080   24.3810 C   0  0  0  0  0  0  0  0  0  0  0  0
   23.8054   29.4504   29.3755 H   0  0  0  0  0  0  0  0  0  0  0  0
   26.7981   32.9060   29.3014 H   0  0  0  0  0  0  0  0  0  0  0  0
   27.1281   27.1663   25.6204 H   0  0  0  0  0  0  0  0  0  0  0  0
   29.1770   26.0406   22.8805 H   0  0  0  0  0  0  0  0  0  0  0  0
   27.7392   25.7275   23.7422 H   0  0  0  0  0  0  0  0  0  0  0  0
   26.0023   27.1282   26.7627 H   0  0  0  0  0  0  0  0  0  0  0  0
   28.2265   32.8655   27.5691 H   0  0  0  0  0  0  0  0  0  0  0  0
   26.9773   31.9077   26.7455 H   0  0  0  0  0  0  0  0  0  0  0  0
   28.8353   30.5782   28.6047 H   0  0  0  0  0  0  0  0  0  0  0  0
   29.3480   30.9874   26.9568 H   0  0  0  0  0  0  0  0  0  0  0  0
  1  9  1  0  0  0  0
  2 13  2  0  0  0  0
  3 18  2  0  0  0  0
  4  9  1  0  0  0  0
  4 12  1  0  0  0  0
  4 20  1  0  0  0  0
  5 13  1  0  0  0  0
  5 14  1  0  0  0  0
  5 21  1  0  0  0  0
  6 18  1  0  0  0  0
  6 19  2  0  0  0  0
  7 17  1  0  0  0  0
  7 19  1  0  0  0  0
  7 22  1  0  0  0  0
  8 19  1  0  0  0  0
  8 23  1  0  0  0  0
  8 24  1  0  0  0  0
  9 10  2  0  0  0  0
 10 11  1  0  0  0  0
 10 25  1  0  0  0  0
 11 12  2  0  0  0  0
 11 16  1  0  0  0  0
 12 13  1  0  0  0  0
 14 15  1  0  0  0  0
 14 26  1  0  0  0  0
 14 27  1  0  0  0  0
 15 16  1  0  0  0  0
 15 28  1  0  0  0  0
 15 29  1  0  0  0  0
 16 17  2  0  0  0  0
 17 18  1  0  0  0  0
M  END
>  <HET>
 HMD  A 400      19

>  <HETSYN>
     HMD HYMENIALDISINE

>  <HETNAM>
     HMD 4-(5-AMINO-4-OXO-4H-PYRAZOL-3-YL)-2-BROMO-4,5,6,7-TETRA
   2 HMD HYDRO-3AH-PYRROLO[2,3-C]AZEPIN-8-ONE

>  <FORMUL>
      HMD    C11 H10 Br1 N5 O2

$$$$
