RAL.pdb
  rDOCK(R)          3D
libRbt.so/2013.1/901 2013/11/27
 36 40  0  0  0  0  0  0  0  0999 V2000
   33.5690   -3.9295   23.5784 C   0  0  0  0  0  0
   32.5116   -3.2975   24.1804 C   0  0  0  0  0  0
   31.9287   -2.1788   23.6535 C   0  0  0  0  0  0
   30.8585   -1.6593   24.3380 O   0  0  0  0  0  0
   32.4093   -1.6606   22.4455 C   0  0  0  0  0  0
   33.4458   -2.3164   21.8282 C   0  0  0  0  0  0
   34.2555   -1.9311   20.4401 S   0  0  0  0  0  0
   35.3335   -3.2301   20.4258 C   0  0  0  0  0  0
   36.4193   -3.3916   19.4174 C   0  0  0  0  0  0
   37.6277   -3.8354   19.9182 C   0  0  0  0  0  0
   38.6554   -4.0909   19.0248 C   0  0  0  0  0  0
   38.5035   -3.8732   17.6696 C   0  0  0  0  0  0
   39.5937   -4.1632   16.8472 O   0  0  0  0  0  0
   37.2825   -3.4743   17.1668 C   0  0  0  0  0  0
   36.2525   -3.2367   18.0687 C   0  0  0  0  0  0
   34.0451   -3.4706   22.4087 C   0  0  0  0  0  0
   35.1504   -3.9757   21.6095 C   0  0  0  0  0  0
   35.9043   -5.0680   21.9943 C   0  0  0  0  0  0
   36.3412   -5.1261   23.1506 O   0  0  0  0  0  0
   36.2291   -6.1702   21.0822 C   0  0  0  0  0  0
   35.6550   -6.2388   19.8288 C   0  0  0  0  0  0
   35.9279   -7.2707   18.9519 C   0  0  0  0  0  0
   36.7883   -8.2877   19.3618 C   0  0  0  0  0  0
   37.3758   -8.2253   20.6128 C   0  0  0  0  0  0
   37.1055   -7.1649   21.4615 C   0  0  0  0  0  0
   37.1918   -9.3991   18.6825 O   0  0  0  0  0  0
   36.4486   -9.7379   17.5215 C   0  0  0  0  0  0
   35.0045   -9.9751   17.8750 C   0  0  0  0  0  0
   33.8374   -9.9591   17.0143 N   0  0  0  0  0  0
   33.7620   -8.6478   16.3389 C   0  0  0  0  0  0
   32.6462   -8.5578   15.2784 C   0  0  0  0  0  0
   31.3141   -8.7576   16.0191 C   0  0  0  0  0  0
   31.3958  -10.2228   16.5475 C   0  0  0  0  0  0
   32.5164  -10.2574   17.6014 C   0  0  0  0  0  0
   30.3982   -0.9185   23.9955 H   0  0  0  0  0  0
   39.5434   -3.9967   15.9265 H   0  0  0  0  0  0
  1  2  2  0  0  0
  1 16  1  0  0  0
  2  3  1  0  0  0
  3  4  1  0  0  0
  3  5  2  0  0  0
  4 35  1  0  0  0
  5  6  1  0  0  0
  6  7  1  0  0  0
  6 16  2  0  0  0
  7  8  1  0  0  0
  8  9  1  0  0  0
  8 17  2  0  0  0
  9 10  2  0  0  0
  9 15  1  0  0  0
 10 11  1  0  0  0
 11 12  2  0  0  0
 12 13  1  0  0  0
 12 14  1  0  0  0
 13 36  1  0  0  0
 14 15  2  0  0  0
 16 17  1  0  0  0
 17 18  1  0  0  0
 18 19  2  0  0  0
 18 20  1  0  0  0
 20 21  2  0  0  0
 20 25  1  0  0  0
 21 22  1  0  0  0
 22 23  2  0  0  0
 23 24  1  0  0  0
 23 26  1  0  0  0
 24 25  2  0  0  0
 26 27  1  0  0  0
 27 28  1  0  0  0
 28 29  1  0  0  0
 29 30  1  0  0  0
 29 34  1  0  0  0
 30 31  1  0  0  0
 31 32  1  0  0  0
 32 33  1  0  0  0
 33 34  1  0  0  0
M  END
>  <CHROM.0>
-56.81781087,-60.73405890,-96.75254467

>  <CHROM.1>
-176.98436906,138.78726759,-177.52086914,132.39432788,-7.78773503,-14.60456480
-59.33373094,160.25827624,-56.85323698,35.04959745,-5.58800747,19.75113667
1.67545667,0.32101033,0.64826300

>  <FORMUL>
      RAL    C28 H27 N1 O4 S1

>  <HET>
 RAL  A 600      34

>  <HETNAM>
     RAL RALOXIFENE

>  <Name>
RAL.pdb

>  <RI>
0

>  <Rbt.Current_Directory>
/home/malgorzata/Desktop/rDOCK_IFD/Wyniki/6a_estrogen_receptor/IFD

>  <Rbt.Executable>
rbdock ($Id: //depot/dev/client3/rdock/2013.1/src/exe/rbdock.cxx#4 $)

>  <Rbt.Library>
libRbt.so (2013.1, Build901 2013/11/27)

>  <Rbt.Parameter_File>
/home/malgorzata/Desktop/rDock_2013.1_src/data/scripts/hard_docking.prm

>  <Rbt.Receptor>
cavity.prm

>  <SCORE>
-8.18281

>  <SCORE.INTER>
-6.18136

>  <SCORE.INTER.CONST>
1

>  <SCORE.INTER.POLAR>
0

>  <SCORE.INTER.REPUL>
0

>  <SCORE.INTER.ROT>
7

>  <SCORE.INTER.VDW>
-18.5814

>  <SCORE.INTER.norm>
-0.181805

>  <SCORE.INTRA>
-1.68856

>  <SCORE.INTRA.DIHEDRAL>
-5.22812

>  <SCORE.INTRA.DIHEDRAL.0>
18.358

>  <SCORE.INTRA.POLAR>
0

>  <SCORE.INTRA.POLAR.0>
0

>  <SCORE.INTRA.REPUL>
0

>  <SCORE.INTRA.REPUL.0>
0

>  <SCORE.INTRA.VDW>
0.925498

>  <SCORE.INTRA.VDW.0>
-1.94569

>  <SCORE.INTRA.norm>
-0.0496636

>  <SCORE.RESTR>
0.130149

>  <SCORE.RESTR.CAVITY>
0.130149

>  <SCORE.RESTR.norm>
0.00382792

>  <SCORE.SYSTEM>
-0.443039

>  <SCORE.SYSTEM.CONST>
0

>  <SCORE.SYSTEM.DIHEDRAL>
0.804749

>  <SCORE.SYSTEM.POLAR>
-0.0447984

>  <SCORE.SYSTEM.VDW>
-0.693099

>  <SCORE.SYSTEM.norm>
-0.0130306

>  <SCORE.heavy>
34

>  <SCORE.norm>
-0.240671

$$$$
RAL.pdb
  rDOCK(R)          3D
libRbt.so/2013.1/901 2013/11/27
 36 40  0  0  0  0  0  0  0  0999 V2000
   33.9862   -4.7449   15.2424 C   0  0  0  0  0  0
   33.6121   -5.0261   13.9537 C   0  0  0  0  0  0
   33.6848   -6.2854   13.4267 C   0  0  0  0  0  0
   33.2517   -6.4397   12.1334 O   0  0  0  0  0  0
   34.1398   -7.3382   14.2288 C   0  0  0  0  0  0
   34.4808   -7.0586   15.5292 C   0  0  0  0  0  0
   35.0900   -8.0594   16.6947 S   0  0  0  0  0  0
   35.2100   -6.9271   17.9409 C   0  0  0  0  0  0
   35.7993   -7.2279   19.2766 C   0  0  0  0  0  0
   36.3742   -6.1512   19.9233 C   0  0  0  0  0  0
   36.8637   -6.3396   21.2056 C   0  0  0  0  0  0
   36.8219   -7.5763   21.8189 C   0  0  0  0  0  0
   37.3358   -7.6678   23.1137 O   0  0  0  0  0  0
   36.2063   -8.6385   21.1901 C   0  0  0  0  0  0
   35.7031   -8.4359   19.9108 C   0  0  0  0  0  0
   34.4110   -5.7337   16.0469 C   0  0  0  0  0  0
   34.8590   -5.6602   17.4287 C   0  0  0  0  0  0
   34.9117   -4.4695   18.1281 C   0  0  0  0  0  0
   35.5376   -3.5140   17.6521 O   0  0  0  0  0  0
   34.2655   -4.2847   19.4321 C   0  0  0  0  0  0
   34.7058   -3.3090   20.3036 C   0  0  0  0  0  0
   34.1292   -3.1186   21.5444 C   0  0  0  0  0  0
   33.0894   -3.9603   21.9356 C   0  0  0  0  0  0
   32.6345   -4.9364   21.0672 C   0  0  0  0  0  0
   33.2130   -5.0875   19.8181 C   0  0  0  0  0  0
   32.3834   -3.9704   23.1022 O   0  0  0  0  0  0
   33.0515   -3.4751   24.2526 C   0  0  0  0  0  0
   32.1679   -3.5990   25.4651 C   0  0  0  0  0  0
   32.5132   -3.4598   26.8669 N   0  0  0  0  0  0
   32.8090   -2.0399   27.1455 C   0  0  0  0  0  0
   33.0438   -1.7349   28.6387 C   0  0  0  0  0  0
   34.2798   -2.5426   29.0665 C   0  0  0  0  0  0
   33.8271   -4.0275   28.9162 C   0  0  0  0  0  0
   33.6112   -4.2804   27.4139 C   0  0  0  0  0  0
   33.2088   -7.2948   11.7525 H   0  0  0  0  0  0
   37.6995   -6.9101   23.5281 H   0  0  0  0  0  0
  1  2  2  0  0  0
  1 16  1  0  0  0
  2  3  1  0  0  0
  3  4  1  0  0  0
  3  5  2  0  0  0
  4 35  1  0  0  0
  5  6  1  0  0  0
  6  7  1  0  0  0
  6 16  2  0  0  0
  7  8  1  0  0  0
  8  9  1  0  0  0
  8 17  2  0  0  0
  9 10  2  0  0  0
  9 15  1  0  0  0
 10 11  1  0  0  0
 11 12  2  0  0  0
 12 13  1  0  0  0
 12 14  1  0  0  0
 13 36  1  0  0  0
 14 15  2  0  0  0
 16 17  1  0  0  0
 17 18  1  0  0  0
 18 19  2  0  0  0
 18 20  1  0  0  0
 20 21  2  0  0  0
 20 25  1  0  0  0
 21 22  1  0  0  0
 22 23  2  0  0  0
 23 24  1  0  0  0
 23 26  1  0  0  0
 24 25  2  0  0  0
 26 27  1  0  0  0
 27 28  1  0  0  0
 28 29  1  0  0  0
 29 30  1  0  0  0
 29 34  1  0  0  0
 30 31  1  0  0  0
 31 32  1  0  0  0
 32 33  1  0  0  0
 33 34  1  0  0  0
M  END
>  <CHROM.0>
-54.68306411,-60.73405890,-76.80765539

>  <CHROM.1>
-174.51405679,151.49979801,-0.70196848,126.55520926,156.78360061,-27.36634742
-177.83620604,167.19543078,70.25813466,34.36555309,-5.28664040,20.53973004
1.43705399,0.90087499,-1.72799940

>  <FORMUL>
      RAL    C28 H27 N1 O4 S1

>  <HET>
 RAL  A 600      34

>  <HETNAM>
     RAL RALOXIFENE

>  <Name>
RAL.pdb

>  <RI>
0

>  <Rbt.Current_Directory>
/home/malgorzata/Desktop/rDOCK_IFD/Wyniki/6a_estrogen_receptor/IFD

>  <Rbt.Executable>
rbdock ($Id: //depot/dev/client3/rdock/2013.1/src/exe/rbdock.cxx#4 $)

>  <Rbt.Library>
libRbt.so (2013.1, Build901 2013/11/27)

>  <Rbt.Parameter_File>
/home/malgorzata/Desktop/rDock_2013.1_src/data/scripts/hard_docking.prm

>  <Rbt.Receptor>
cavity.prm

>  <SCORE>
-8.56244

>  <SCORE.INTER>
-7.30899

>  <SCORE.INTER.CONST>
1

>  <SCORE.INTER.POLAR>
0

>  <SCORE.INTER.REPUL>
0

>  <SCORE.INTER.ROT>
7

>  <SCORE.INTER.VDW>
-19.709

>  <SCORE.INTER.norm>
-0.21497

>  <SCORE.INTRA>
-2.32458

>  <SCORE.INTRA.DIHEDRAL>
-4.83558

>  <SCORE.INTRA.DIHEDRAL.0>
18.358

>  <SCORE.INTRA.POLAR>
0

>  <SCORE.INTRA.POLAR.0>
0

>  <SCORE.INTRA.REPUL>
0

>  <SCORE.INTRA.REPUL.0>
0

>  <SCORE.INTRA.VDW>
0.0932128

>  <SCORE.INTRA.VDW.0>
-1.94569

>  <SCORE.INTRA.norm>
-0.0683699

>  <SCORE.RESTR>
1.45095

>  <SCORE.RESTR.CAVITY>
1.45095

>  <SCORE.RESTR.norm>
0.0426751

>  <SCORE.SYSTEM>
-0.379828

>  <SCORE.SYSTEM.CONST>
0

>  <SCORE.SYSTEM.DIHEDRAL>
0.804268

>  <SCORE.SYSTEM.POLAR>
-0.049257

>  <SCORE.SYSTEM.VDW>
-0.614489

>  <SCORE.SYSTEM.norm>
-0.0111714

>  <SCORE.heavy>
34

>  <SCORE.norm>
-0.251837

$$$$
RAL.pdb
  rDOCK(R)          3D
libRbt.so/2013.1/901 2013/11/27
 36 40  0  0  0  0  0  0  0  0999 V2000
   28.0868    0.0429   26.5969 C   0  0  0  0  0  0
   26.7412    0.1445   26.8398 C   0  0  0  0  0  0
   26.1486   -0.4193   27.9350 C   0  0  0  0  0  0
   24.7982   -0.2194   28.0782 O   0  0  0  0  0  0
   26.9376   -1.1134   28.8594 C   0  0  0  0  0  0
   28.2897   -1.1834   28.6304 C   0  0  0  0  0  0
   29.4635   -1.9611   29.4956 S   0  0  0  0  0  0
   30.7860   -1.5371   28.5359 C   0  0  0  0  0  0
   32.1711   -2.0347   28.7716 C   0  0  0  0  0  0
   33.0961   -1.6822   27.8082 C   0  0  0  0  0  0
   34.4205   -2.0368   28.0075 C   0  0  0  0  0  0
   34.8142   -2.7599   29.1162 C   0  0  0  0  0  0
   36.1710   -3.0674   29.2328 O   0  0  0  0  0  0
   33.8977   -3.0708   30.0991 C   0  0  0  0  0  0
   32.5747   -2.6963   29.8985 C   0  0  0  0  0  0
   28.8780   -0.6008   27.4717 C   0  0  0  0  0  0
   30.3126   -0.8322   27.4091 C   0  0  0  0  0  0
   31.0893   -0.3889   26.3557 C   0  0  0  0  0  0
   31.3240    0.8208   26.2426 O   0  0  0  0  0  0
   31.6445   -1.2928   25.3424 C   0  0  0  0  0  0
   32.3006   -0.7917   24.2361 C   0  0  0  0  0  0
   32.8217   -1.6146   23.2565 C   0  0  0  0  0  0
   32.6514   -2.9925   23.3793 C   0  0  0  0  0  0
   32.0026   -3.5064   24.4879 C   0  0  0  0  0  0
   31.5137   -2.6597   25.4685 C   0  0  0  0  0  0
   33.0631   -3.9880   22.5433 O   0  0  0  0  0  0
   34.1696   -3.6948   21.7039 C   0  0  0  0  0  0
   34.5084   -4.8866   20.8488 C   0  0  0  0  0  0
   33.7533   -5.4753   19.7595 N   0  0  0  0  0  0
   34.4174   -6.7266   19.3417 C   0  0  0  0  0  0
   33.6267   -7.5286   18.2884 C   0  0  0  0  0  0
   33.5230   -6.6378   17.0399 C   0  0  0  0  0  0
   32.6579   -5.4293   17.5130 C   0  0  0  0  0  0
   33.4906   -4.6630   18.5555 C   0  0  0  0  0  0
   24.3550    0.3973   27.5293 H   0  0  0  0  0  0
   36.6286   -2.8741   30.0273 H   0  0  0  0  0  0
  1  2  2  0  0  0
  1 16  1  0  0  0
  2  3  1  0  0  0
  3  4  1  0  0  0
  3  5  2  0  0  0
  4 35  1  0  0  0
  5  6  1  0  0  0
  6  7  1  0  0  0
  6 16  2  0  0  0
  7  8  1  0  0  0
  8  9  1  0  0  0
  8 17  2  0  0  0
  9 10  2  0  0  0
  9 15  1  0  0  0
 10 11  1  0  0  0
 11 12  2  0  0  0
 12 13  1  0  0  0
 12 14  1  0  0  0
 13 36  1  0  0  0
 14 15  2  0  0  0
 16 17  1  0  0  0
 17 18  1  0  0  0
 18 19  2  0  0  0
 18 20  1  0  0  0
 20 21  2  0  0  0
 20 25  1  0  0  0
 21 22  1  0  0  0
 22 23  2  0  0  0
 23 24  1  0  0  0
 23 26  1  0  0  0
 24 25  2  0  0  0
 26 27  1  0  0  0
 27 28  1  0  0  0
 28 29  1  0  0  0
 29 30  1  0  0  0
 29 34  1  0  0  0
 30 31  1  0  0  0
 31 32  1  0  0  0
 32 33  1  0  0  0
 33 34  1  0  0  0
M  END
>  <CHROM.0>
-150.47121986,-60.73405890,-110.79831400

>  <CHROM.1>
-10.33634994,174.03173771,128.82688677,-107.48762184,173.45187699,24.09539948
179.72656053,68.65013797,-173.15038964,31.60723204,-2.56791317,25.28318804
2.00204529,-0.32803515,1.26661025

>  <FORMUL>
      RAL    C28 H27 N1 O4 S1

>  <HET>
 RAL  A 600      34

>  <HETNAM>
     RAL RALOXIFENE

>  <Name>
RAL.pdb

>  <RI>
0

>  <Rbt.Current_Directory>
/home/malgorzata/Desktop/rDOCK_IFD/Wyniki/6a_estrogen_receptor/IFD

>  <Rbt.Executable>
rbdock ($Id: //depot/dev/client3/rdock/2013.1/src/exe/rbdock.cxx#4 $)

>  <Rbt.Library>
libRbt.so (2013.1, Build901 2013/11/27)

>  <Rbt.Parameter_File>
/home/malgorzata/Desktop/rDock_2013.1_src/data/scripts/hard_docking.prm

>  <Rbt.Receptor>
cavity.prm

>  <SCORE>
-15.0348

>  <SCORE.INTER>
-14.0883

>  <SCORE.INTER.CONST>
1

>  <SCORE.INTER.POLAR>
-1.33567

>  <SCORE.INTER.REPUL>
0

>  <SCORE.INTER.ROT>
7

>  <SCORE.INTER.VDW>
-21.947

>  <SCORE.INTER.norm>
-0.414361

>  <SCORE.INTRA>
-0.890393

>  <SCORE.INTRA.DIHEDRAL>
-3.58568

>  <SCORE.INTRA.DIHEDRAL.0>
18.358

>  <SCORE.INTRA.POLAR>
0

>  <SCORE.INTRA.POLAR.0>
0

>  <SCORE.INTRA.REPUL>
0

>  <SCORE.INTRA.REPUL.0>
0

>  <SCORE.INTRA.VDW>
0.902449

>  <SCORE.INTRA.VDW.0>
-1.94569

>  <SCORE.INTRA.norm>
-0.026188

>  <SCORE.RESTR>
0

>  <SCORE.RESTR.CAVITY>
0

>  <SCORE.RESTR.norm>
0

>  <SCORE.SYSTEM>
-0.0561071

>  <SCORE.SYSTEM.CONST>
0

>  <SCORE.SYSTEM.DIHEDRAL>
0.801369

>  <SCORE.SYSTEM.VDW>
-0.456792

>  <SCORE.SYSTEM.norm>
-0.00165021

>  <SCORE.heavy>
34

>  <SCORE.norm>
-0.442199

$$$$
RAL.pdb
  rDOCK(R)          3D
libRbt.so/2013.1/901 2013/11/27
 36 40  0  0  0  0  0  0  0  0999 V2000
   33.8300   -7.6222   19.5227 C   0  0  0  0  0  0
   34.1957   -8.9302   19.3346 C   0  0  0  0  0  0
   35.4736   -9.2963   19.0159 C   0  0  0  0  0  0
   35.7163  -10.6408   18.8838 O   0  0  0  0  0  0
   36.4580   -8.3092   18.8920 C   0  0  0  0  0  0
   36.0952   -7.0037   19.1150 C   0  0  0  0  0  0
   37.0011   -5.6264   18.9987 S   0  0  0  0  0  0
   35.8031   -4.5174   19.4283 C   0  0  0  0  0  0
   36.0035   -3.0404   19.4207 C   0  0  0  0  0  0
   37.3204   -2.6243   19.3965 C   0  0  0  0  0  0
   37.5790   -1.2665   19.3004 C   0  0  0  0  0  0
   36.5570   -0.3383   19.2700 C   0  0  0  0  0  0
   36.9154    1.0071   19.1681 O   0  0  0  0  0  0
   35.2432   -0.7581   19.2477 C   0  0  0  0  0  0
   34.9937   -2.1227   19.3274 C   0  0  0  0  0  0
   34.7522   -6.6494   19.4293 C   0  0  0  0  0  0
   34.5848   -5.2126   19.5811 C   0  0  0  0  0  0
   33.3597   -4.6340   19.8528 C   0  0  0  0  0  0
   32.4407   -4.7466   19.0317 O   0  0  0  0  0  0
   33.0959   -3.8698   21.0769 C   0  0  0  0  0  0
   31.9765   -3.0685   21.1786 C   0  0  0  0  0  0
   31.7066   -2.3248   22.3111 C   0  0  0  0  0  0
   32.6116   -2.3657   23.3702 C   0  0  0  0  0  0
   33.7328   -3.1714   23.2826 C   0  0  0  0  0  0
   33.9648   -3.9277   22.1459 C   0  0  0  0  0  0
   32.5636   -1.7163   24.5683 O   0  0  0  0  0  0
   31.5593   -0.7234   24.7122 C   0  0  0  0  0  0
   30.2516   -1.3552   25.1085 C   0  0  0  0  0  0
   29.8840   -1.9893   26.3601 N   0  0  0  0  0  0
   28.5155   -2.5306   26.2355 C   0  0  0  0  0  0
   28.0631   -3.3636   27.4517 C   0  0  0  0  0  0
   28.0617   -2.4156   28.6618 C   0  0  0  0  0  0
   29.5631   -2.0321   28.8387 C   0  0  0  0  0  0
   29.9619   -1.2020   27.6061 C   0  0  0  0  0  0
   35.0170  -11.2556   18.9887 H   0  0  0  0  0  0
   37.8175    1.2564   19.2133 H   0  0  0  0  0  0
  1  2  2  0  0  0
  1 16  1  0  0  0
  2  3  1  0  0  0
  3  4  1  0  0  0
  3  5  2  0  0  0
  4 35  1  0  0  0
  5  6  1  0  0  0
  6  7  1  0  0  0
  6 16  2  0  0  0
  7  8  1  0  0  0
  8  9  1  0  0  0
  8 17  2  0  0  0
  9 10  2  0  0  0
  9 15  1  0  0  0
 10 11  1  0  0  0
 11 12  2  0  0  0
 12 13  1  0  0  0
 12 14  1  0  0  0
 13 36  1  0  0  0
 14 15  2  0  0  0
 16 17  1  0  0  0
 17 18  1  0  0  0
 18 19  2  0  0  0
 18 20  1  0  0  0
 20 21  2  0  0  0
 20 25  1  0  0  0
 21 22  1  0  0  0
 22 23  2  0  0  0
 23 24  1  0  0  0
 23 26  1  0  0  0
 24 25  2  0  0  0
 26 27  1  0  0  0
 27 28  1  0  0  0
 28 29  1  0  0  0
 29 30  1  0  0  0
 29 34  1  0  0  0
 30 31  1  0  0  0
 31 32  1  0  0  0
 32 33  1  0  0  0
 33 34  1  0  0  0
M  END
>  <CHROM.0>
-56.98969378,-60.73405890,90.35308261

>  <CHROM.1>
1.63272931,-17.03437423,-6.36211136,117.68271183,165.57563843,-9.30586563
83.60535017,69.20089105,-176.53206308,33.60236939,-3.81145395,21.70932772
0.54565986,-0.81541379,-2.92023511

>  <FORMUL>
      RAL    C28 H27 N1 O4 S1

>  <HET>
 RAL  A 600      34

>  <HETNAM>
     RAL RALOXIFENE

>  <Name>
RAL.pdb

>  <RI>
0

>  <Rbt.Current_Directory>
/home/malgorzata/Desktop/rDOCK_IFD/Wyniki/6a_estrogen_receptor/IFD

>  <Rbt.Executable>
rbdock ($Id: //depot/dev/client3/rdock/2013.1/src/exe/rbdock.cxx#4 $)

>  <Rbt.Library>
libRbt.so (2013.1, Build901 2013/11/27)

>  <Rbt.Parameter_File>
/home/malgorzata/Desktop/rDock_2013.1_src/data/scripts/hard_docking.prm

>  <Rbt.Receptor>
cavity.prm

>  <SCORE>
-11.9492

>  <SCORE.INTER>
-9.22879

>  <SCORE.INTER.CONST>
1

>  <SCORE.INTER.POLAR>
0

>  <SCORE.INTER.REPUL>
0

>  <SCORE.INTER.ROT>
7

>  <SCORE.INTER.VDW>
-21.6288

>  <SCORE.INTER.norm>
-0.271435

>  <SCORE.INTRA>
-2.34987

>  <SCORE.INTRA.DIHEDRAL>
-4.89419

>  <SCORE.INTRA.DIHEDRAL.0>
18.358

>  <SCORE.INTRA.POLAR>
0

>  <SCORE.INTRA.POLAR.0>
0

>  <SCORE.INTRA.REPUL>
0

>  <SCORE.INTRA.REPUL.0>
0

>  <SCORE.INTRA.VDW>
0.0972224

>  <SCORE.INTRA.VDW.0>
-1.94569

>  <SCORE.INTRA.norm>
-0.0691139

>  <SCORE.RESTR>
0.0722628

>  <SCORE.RESTR.CAVITY>
0.0722628

>  <SCORE.RESTR.norm>
0.00212538

>  <SCORE.SYSTEM>
-0.442824

>  <SCORE.SYSTEM.CONST>
0

>  <SCORE.SYSTEM.DIHEDRAL>
0.804129

>  <SCORE.SYSTEM.POLAR>
-0.0443623

>  <SCORE.SYSTEM.VDW>
-0.694056

>  <SCORE.SYSTEM.norm>
-0.0130242

>  <SCORE.heavy>
34

>  <SCORE.norm>
-0.351448

$$$$
RAL.pdb
  rDOCK(R)          3D
libRbt.so/2013.1/901 2013/11/27
 36 40  0  0  0  0  0  0  0  0999 V2000
   34.5308   -7.7124   16.4369 C   0  0  0  0  0  0
   33.7828   -8.2752   15.4351 C   0  0  0  0  0  0
   33.6718   -7.7092   14.1957 C   0  0  0  0  0  0
   32.9168   -8.3880   13.2720 O   0  0  0  0  0  0
   34.3573   -6.5200   13.9221 C   0  0  0  0  0  0
   35.1328   -5.9780   14.9172 C   0  0  0  0  0  0
   36.0106   -4.5778   14.9211 S   0  0  0  0  0  0
   36.6261   -4.6878   16.4890 C   0  0  0  0  0  0
   37.4567   -3.6270   17.1268 C   0  0  0  0  0  0
   38.0585   -3.9857   18.3173 C   0  0  0  0  0  0
   38.9146   -3.0785   18.9204 C   0  0  0  0  0  0
   39.1386   -1.8283   18.3784 C   0  0  0  0  0  0
   40.0206   -0.9843   19.0555 O   0  0  0  0  0  0
   38.5733   -1.4896   17.1666 C   0  0  0  0  0  0
   37.7294   -2.4123   16.5606 C   0  0  0  0  0  0
   35.2167   -6.5806   16.2049 C   0  0  0  0  0  0
   36.0566   -5.8170   17.1144 C   0  0  0  0  0  0
   36.2564   -6.1919   18.4294 C   0  0  0  0  0  0
   36.8751   -7.2351   18.6750 O   0  0  0  0  0  0
   35.7513   -5.4109   19.5638 C   0  0  0  0  0  0
   34.8224   -4.4084   19.3699 C   0  0  0  0  0  0
   34.3377   -3.6448   20.4141 C   0  0  0  0  0  0
   34.8273   -3.8786   21.6980 C   0  0  0  0  0  0
   35.7526   -4.8860   21.9054 C   0  0  0  0  0  0
   36.2011   -5.6545   20.8443 C   0  0  0  0  0  0
   34.5105   -3.2518   22.8668 O   0  0  0  0  0  0
   33.1336   -3.2045   23.2085 C   0  0  0  0  0  0
   32.9367   -2.4264   24.4822 C   0  0  0  0  0  0
   33.5502   -2.6270   25.7810 N   0  0  0  0  0  0
   33.0319   -3.8812   26.3636 C   0  0  0  0  0  0
   33.7219   -4.2863   27.6818 C   0  0  0  0  0  0
   33.4316   -3.1676   28.6954 C   0  0  0  0  0  0
   34.1622   -1.9246   28.1006 C   0  0  0  0  0  0
   33.4352   -1.5601   26.7944 C   0  0  0  0  0  0
   32.4403   -9.1532   13.5276 H   0  0  0  0  0  0
   40.3579   -1.2339   19.8933 H   0  0  0  0  0  0
  1  2  2  0  0  0
  1 16  1  0  0  0
  2  3  1  0  0  0
  3  4  1  0  0  0
  3  5  2  0  0  0
  4 35  1  0  0  0
  5  6  1  0  0  0
  6  7  1  0  0  0
  6 16  2  0  0  0
  7  8  1  0  0  0
  8  9  1  0  0  0
  8 17  2  0  0  0
  9 10  2  0  0  0
  9 15  1  0  0  0
 10 11  1  0  0  0
 11 12  2  0  0  0
 12 13  1  0  0  0
 12 14  1  0  0  0
 13 36  1  0  0  0
 14 15  2  0  0  0
 16 17  1  0  0  0
 17 18  1  0  0  0
 18 19  2  0  0  0
 18 20  1  0  0  0
 20 21  2  0  0  0
 20 25  1  0  0  0
 21 22  1  0  0  0
 22 23  2  0  0  0
 23 24  1  0  0  0
 23 26  1  0  0  0
 24 25  2  0  0  0
 26 27  1  0  0  0
 27 28  1  0  0  0
 28 29  1  0  0  0
 29 30  1  0  0  0
 29 34  1  0  0  0
 30 31  1  0  0  0
 31 32  1  0  0  0
 32 33  1  0  0  0
 33 34  1  0  0  0
M  END
>  <CHROM.0>
-173.23821166,-60.73405890,110.71536779

>  <CHROM.1>
5.95257423,-169.35335515,-6.96090467,-112.92257044,13.21450298,54.13333625
-177.20401869,-54.85621247,-69.05629924,35.43595506,-4.42910608,19.72286696
1.37123229,-0.68318152,-1.97072769

>  <FORMUL>
      RAL    C28 H27 N1 O4 S1

>  <HET>
 RAL  A 600      34

>  <HETNAM>
     RAL RALOXIFENE

>  <Name>
RAL.pdb

>  <RI>
0

>  <Rbt.Current_Directory>
/home/malgorzata/Desktop/rDOCK_IFD/Wyniki/6a_estrogen_receptor/IFD

>  <Rbt.Executable>
rbdock ($Id: //depot/dev/client3/rdock/2013.1/src/exe/rbdock.cxx#4 $)

>  <Rbt.Library>
libRbt.so (2013.1, Build901 2013/11/27)

>  <Rbt.Parameter_File>
/home/malgorzata/Desktop/rDock_2013.1_src/data/scripts/hard_docking.prm

>  <Rbt.Receptor>
cavity.prm

>  <SCORE>
-11.3948

>  <SCORE.INTER>
-10.3872

>  <SCORE.INTER.CONST>
1

>  <SCORE.INTER.POLAR>
-0.484024

>  <SCORE.INTER.REPUL>
0

>  <SCORE.INTER.ROT>
7

>  <SCORE.INTER.VDW>
-21.1415

>  <SCORE.INTER.norm>
-0.305506

>  <SCORE.INTRA>
-2.21588

>  <SCORE.INTRA.DIHEDRAL>
-3.54863

>  <SCORE.INTRA.DIHEDRAL.0>
18.358

>  <SCORE.INTRA.POLAR>
0

>  <SCORE.INTRA.POLAR.0>
0

>  <SCORE.INTRA.REPUL>
0

>  <SCORE.INTRA.REPUL.0>
0

>  <SCORE.INTRA.VDW>
-0.441567

>  <SCORE.INTRA.VDW.0>
-1.94569

>  <SCORE.INTRA.norm>
-0.065173

>  <SCORE.RESTR>
1.26954

>  <SCORE.RESTR.CAVITY>
1.26954

>  <SCORE.RESTR.norm>
0.0373395

>  <SCORE.SYSTEM>
-0.0612177

>  <SCORE.SYSTEM.CONST>
0

>  <SCORE.SYSTEM.DIHEDRAL>
0.80357

>  <SCORE.SYSTEM.VDW>
-0.463003

>  <SCORE.SYSTEM.norm>
-0.00180052

>  <SCORE.heavy>
34

>  <SCORE.norm>
-0.33514

$$$$
RAL.pdb
  rDOCK(R)          3D
libRbt.so/2013.1/901 2013/11/27
 36 40  0  0  0  0  0  0  0  0999 V2000
   35.9815   -4.0713   24.7266 C   0  0  0  0  0  0
   35.8437   -4.2147   26.0832 C   0  0  0  0  0  0
   34.6455   -4.0503   26.7205 C   0  0  0  0  0  0
   34.6354   -4.2512   28.0782 O   0  0  0  0  0  0
   33.5065   -3.7415   25.9681 C   0  0  0  0  0  0
   33.6421   -3.6327   24.6061 C   0  0  0  0  0  0
   32.5138   -3.2354   23.4657 S   0  0  0  0  0  0
   33.5069   -3.3354   22.1044 C   0  0  0  0  0  0
   33.0573   -2.9878   20.7264 C   0  0  0  0  0  0
   31.6980   -3.0953   20.5052 C   0  0  0  0  0  0
   31.1997   -2.7045   19.2728 C   0  0  0  0  0  0
   32.0333   -2.2555   18.2675 C   0  0  0  0  0  0
   31.4391   -1.8804   17.0613 O   0  0  0  0  0  0
   33.3837   -2.1054   18.5056 C   0  0  0  0  0  0
   33.8720   -2.4840   19.7502 C   0  0  0  0  0  0
   34.9064   -3.7926   23.9704 C   0  0  0  0  0  0
   34.8267   -3.5925   22.5319 C   0  0  0  0  0  0
   35.9363   -3.6634   21.7115 C   0  0  0  0  0  0
   36.9244   -2.9634   21.9664 O   0  0  0  0  0  0
   35.9956   -4.5286   20.5283 C   0  0  0  0  0  0
   37.1358   -4.5819   19.7520 C   0  0  0  0  0  0
   37.2192   -5.3746   18.6237 C   0  0  0  0  0  0
   36.1039   -6.1198   18.2451 C   0  0  0  0  0  0
   34.9585   -6.0804   19.0201 C   0  0  0  0  0  0
   34.9116   -5.2978   20.1616 C   0  0  0  0  0  0
   35.9485   -6.9540   17.1777 O   0  0  0  0  0  0
   36.1445   -8.3387   17.4207 C   0  0  0  0  0  0
   34.9214   -8.9356   18.0641 C   0  0  0  0  0  0
   34.8336   -9.8905   19.1522 N   0  0  0  0  0  0
   33.4422  -10.3762   19.2482 C   0  0  0  0  0  0
   33.2494  -11.5127   20.2724 C   0  0  0  0  0  0
   33.6187  -10.9357   21.6486 C   0  0  0  0  0  0
   35.1403  -10.6161   21.5245 C   0  0  0  0  0  0
   35.2769   -9.4779   20.4982 C   0  0  0  0  0  0
   35.4433   -4.3178   28.5481 H   0  0  0  0  0  0
   31.9642   -1.5271   16.3703 H   0  0  0  0  0  0
  1  2  2  0  0  0
  1 16  1  0  0  0
  2  3  1  0  0  0
  3  4  1  0  0  0
  3  5  2  0  0  0
  4 35  1  0  0  0
  5  6  1  0  0  0
  6  7  1  0  0  0
  6 16  2  0  0  0
  7  8  1  0  0  0
  8  9  1  0  0  0
  8 17  2  0  0  0
  9 10  2  0  0  0
  9 15  1  0  0  0
 10 11  1  0  0  0
 11 12  2  0  0  0
 12 13  1  0  0  0
 12 14  1  0  0  0
 13 36  1  0  0  0
 14 15  2  0  0  0
 16 17  1  0  0  0
 17 18  1  0  0  0
 18 19  2  0  0  0
 18 20  1  0  0  0
 20 21  2  0  0  0
 20 25  1  0  0  0
 21 22  1  0  0  0
 22 23  2  0  0  0
 23 24  1  0  0  0
 23 26  1  0  0  0
 24 25  2  0  0  0
 26 27  1  0  0  0
 27 28  1  0  0  0
 28 29  1  0  0  0
 29 30  1  0  0  0
 29 34  1  0  0  0
 30 31  1  0  0  0
 31 32  1  0  0  0
 32 33  1  0  0  0
 33 34  1  0  0  0
M  END
>  <CHROM.0>
49.52642349,-60.73405890,-94.31648174

>  <CHROM.1>
12.30410934,-25.09540842,176.72388415,126.46303265,-178.89495806,96.83314419
79.35708547,-138.27797563,-168.72653968,34.40972275,-5.31060975,21.15788340
-1.97781547,1.32796628,-1.96628834

>  <FORMUL>
      RAL    C28 H27 N1 O4 S1

>  <HET>
 RAL  A 600      34

>  <HETNAM>
     RAL RALOXIFENE

>  <Name>
RAL.pdb

>  <RI>
0

>  <Rbt.Current_Directory>
/home/malgorzata/Desktop/rDOCK_IFD/Wyniki/6a_estrogen_receptor/IFD

>  <Rbt.Executable>
rbdock ($Id: //depot/dev/client3/rdock/2013.1/src/exe/rbdock.cxx#4 $)

>  <Rbt.Library>
libRbt.so (2013.1, Build901 2013/11/27)

>  <Rbt.Parameter_File>
/home/malgorzata/Desktop/rDock_2013.1_src/data/scripts/hard_docking.prm

>  <Rbt.Receptor>
cavity.prm

>  <SCORE>
-5.93627

>  <SCORE.INTER>
-8.65691

>  <SCORE.INTER.CONST>
1

>  <SCORE.INTER.POLAR>
0

>  <SCORE.INTER.REPUL>
0

>  <SCORE.INTER.ROT>
7

>  <SCORE.INTER.VDW>
-21.0569

>  <SCORE.INTER.norm>
-0.254615

>  <SCORE.INTRA>
1.00115

>  <SCORE.INTRA.DIHEDRAL>
2.08665

>  <SCORE.INTRA.DIHEDRAL.0>
18.358

>  <SCORE.INTRA.POLAR>
0

>  <SCORE.INTRA.POLAR.0>
0

>  <SCORE.INTRA.REPUL>
0

>  <SCORE.INTRA.REPUL.0>
0

>  <SCORE.INTRA.VDW>
-0.042169

>  <SCORE.INTRA.VDW.0>
-1.94569

>  <SCORE.INTRA.norm>
0.0294457

>  <SCORE.RESTR>
1.46597

>  <SCORE.RESTR.CAVITY>
1.46597

>  <SCORE.RESTR.norm>
0.0431168

>  <SCORE.SYSTEM>
0.253517

>  <SCORE.SYSTEM.CONST>
0

>  <SCORE.SYSTEM.DIHEDRAL>
0.80745

>  <SCORE.SYSTEM.VDW>
-0.150208

>  <SCORE.SYSTEM.norm>
0.00745639

>  <SCORE.heavy>
34

>  <SCORE.norm>
-0.174596

$$$$
RAL.pdb
  rDOCK(R)          3D
libRbt.so/2013.1/901 2013/11/27
 36 40  0  0  0  0  0  0  0  0999 V2000
   31.9145   -4.3441   17.2132 C   0  0  0  0  0  0
   31.3774   -3.5420   16.2394 C   0  0  0  0  0  0
   31.8016   -3.5807   14.9405 C   0  0  0  0  0  0
   31.1617   -2.7478   14.0567 O   0  0  0  0  0  0
   32.8087   -4.4813   14.5755 C   0  0  0  0  0  0
   33.3198   -5.3068   15.5464 C   0  0  0  0  0  0
   34.5324   -6.4250   15.4441 S   0  0  0  0  0  0
   34.5036   -6.9537   17.0470 C   0  0  0  0  0  0
   35.4689   -7.9409   17.6087 C   0  0  0  0  0  0
   36.0555   -8.7834   16.6845 C   0  0  0  0  0  0
   37.0272   -9.6675   17.1248 C   0  0  0  0  0  0
   37.3816   -9.7443   18.4573 C   0  0  0  0  0  0
   38.3735  -10.6629   18.8053 O   0  0  0  0  0  0
   36.8283   -8.8710   19.3705 C   0  0  0  0  0  0
   35.8668   -7.9763   18.9168 C   0  0  0  0  0  0
   32.8707   -5.2332   16.8958 C   0  0  0  0  0  0
   33.5766   -6.1654   17.7609 C   0  0  0  0  0  0
   33.3324   -6.2463   19.1186 C   0  0  0  0  0  0
   33.3048   -7.3565   19.6645 O   0  0  0  0  0  0
   33.0863   -5.0653   19.9534 C   0  0  0  0  0  0
   32.2551   -5.1416   21.0528 C   0  0  0  0  0  0
   31.9907   -4.0452   21.8506 C   0  0  0  0  0  0
   32.5606   -2.8188   21.5133 C   0  0  0  0  0  0
   33.4017   -2.7323   20.4182 C   0  0  0  0  0  0
   33.6710   -3.8536   19.6515 C   0  0  0  0  0  0
   32.4361   -1.6121   22.1360 O   0  0  0  0  0  0
   32.1375   -1.6417   23.5234 C   0  0  0  0  0  0
   33.2135   -2.3792   24.2749 C   0  0  0  0  0  0
   33.4059   -2.5070   25.7067 N   0  0  0  0  0  0
   34.5557   -3.4001   25.9546 C   0  0  0  0  0  0
   34.9586   -3.4977   27.4398 C   0  0  0  0  0  0
   33.7560   -4.0976   28.1862 C   0  0  0  0  0  0
   32.6423   -3.0166   28.0318 C   0  0  0  0  0  0
   32.2748   -2.9620   26.5386 C   0  0  0  0  0  0
   31.2459   -2.8897   13.1344 H   0  0  0  0  0  0
   38.8107  -11.1553   18.1386 H   0  0  0  0  0  0
  1  2  2  0  0  0
  1 16  1  0  0  0
  2  3  1  0  0  0
  3  4  1  0  0  0
  3  5  2  0  0  0
  4 35  1  0  0  0
  5  6  1  0  0  0
  6  7  1  0  0  0
  6 16  2  0  0  0
  7  8  1  0  0  0
  8  9  1  0  0  0
  8 17  2  0  0  0
  9 10  2  0  0  0
  9 15  1  0  0  0
 10 11  1  0  0  0
 11 12  2  0  0  0
 12 13  1  0  0  0
 12 14  1  0  0  0
 13 36  1  0  0  0
 14 15  2  0  0  0
 16 17  1  0  0  0
 17 18  1  0  0  0
 18 19  2  0  0  0
 18 20  1  0  0  0
 20 21  2  0  0  0
 20 25  1  0  0  0
 21 22  1  0  0  0
 22 23  2  0  0  0
 23 24  1  0  0  0
 23 26  1  0  0  0
 24 25  2  0  0  0
 26 27  1  0  0  0
 27 28  1  0  0  0
 28 29  1  0  0  0
 29 30  1  0  0  0
 29 34  1  0  0  0
 30 31  1  0  0  0
 31 32  1  0  0  0
 32 33  1  0  0  0
 33 34  1  0  0  0
M  END
>  <CHROM.0>
-55.66018021,-60.73405890,-108.63396373

>  <CHROM.1>
-163.76203293,-23.92421561,4.10341212,-39.49151486,148.42002292,26.16112492
59.45456145,171.48055020,176.50417927,33.79096475,-5.15854571,19.96193874
1.37290576,0.89674677,-1.79652993

>  <FORMUL>
      RAL    C28 H27 N1 O4 S1

>  <HET>
 RAL  A 600      34

>  <HETNAM>
     RAL RALOXIFENE

>  <Name>
RAL.pdb

>  <RI>
0

>  <Rbt.Current_Directory>
/home/malgorzata/Desktop/rDOCK_IFD/Wyniki/6a_estrogen_receptor/IFD

>  <Rbt.Executable>
rbdock ($Id: //depot/dev/client3/rdock/2013.1/src/exe/rbdock.cxx#4 $)

>  <Rbt.Library>
libRbt.so (2013.1, Build901 2013/11/27)

>  <Rbt.Parameter_File>
/home/malgorzata/Desktop/rDock_2013.1_src/data/scripts/hard_docking.prm

>  <Rbt.Receptor>
cavity.prm

>  <SCORE>
-10.5065

>  <SCORE.INTER>
-8.73681

>  <SCORE.INTER.CONST>
1

>  <SCORE.INTER.POLAR>
0

>  <SCORE.INTER.REPUL>
0

>  <SCORE.INTER.ROT>
7

>  <SCORE.INTER.VDW>
-21.1368

>  <SCORE.INTER.norm>
-0.256965

>  <SCORE.INTRA>
-2.01168

>  <SCORE.INTRA.DIHEDRAL>
-6.86945

>  <SCORE.INTRA.DIHEDRAL.0>
18.358

>  <SCORE.INTRA.POLAR>
0

>  <SCORE.INTRA.POLAR.0>
0

>  <SCORE.INTRA.REPUL>
0

>  <SCORE.INTRA.REPUL.0>
0

>  <SCORE.INTRA.VDW>
1.42305

>  <SCORE.INTRA.VDW.0>
-1.94569

>  <SCORE.INTRA.norm>
-0.059167

>  <SCORE.RESTR>
0.69099

>  <SCORE.RESTR.CAVITY>
0.69099

>  <SCORE.RESTR.norm>
0.0203232

>  <SCORE.SYSTEM>
-0.448989

>  <SCORE.SYSTEM.CONST>
0

>  <SCORE.SYSTEM.DIHEDRAL>
0.80439

>  <SCORE.SYSTEM.POLAR>
-0.0474369

>  <SCORE.SYSTEM.VDW>
-0.689898

>  <SCORE.SYSTEM.norm>
-0.0132056

>  <SCORE.heavy>
34

>  <SCORE.norm>
-0.309014

$$$$
RAL.pdb
  rDOCK(R)          3D
libRbt.so/2013.1/901 2013/11/27
 36 40  0  0  0  0  0  0  0  0999 V2000
   34.0029   -6.2863   15.5123 C   0  0  0  0  0  0
   33.2841   -7.0583   14.6363 C   0  0  0  0  0  0
   33.4142   -8.4179   14.5792 C   0  0  0  0  0  0
   32.6155   -9.0775   13.6786 O   0  0  0  0  0  0
   34.2979   -9.0586   15.4551 C   0  0  0  0  0  0
   34.9901   -8.2854   16.3542 C   0  0  0  0  0  0
   36.1267   -8.7313   17.4681 S   0  0  0  0  0  0
   36.4363   -7.2036   18.1159 C   0  0  0  0  0  0
   37.4790   -6.9396   19.1479 C   0  0  0  0  0  0
   37.7582   -7.9996   19.9884 C   0  0  0  0  0  0
   38.7780   -7.8529   20.9147 C   0  0  0  0  0  0
   39.4790   -6.6691   21.0339 C   0  0  0  0  0  0
   40.4918   -6.6172   21.9933 O   0  0  0  0  0  0
   39.2300   -5.6284   20.1635 C   0  0  0  0  0  0
   38.2167   -5.7906   19.2266 C   0  0  0  0  0  0
   34.8474   -6.8687   16.3801 C   0  0  0  0  0  0
   35.7043   -6.2489   17.3787 C   0  0  0  0  0  0
   35.7600   -4.8802   17.5604 C   0  0  0  0  0  0
   36.1888   -4.1643   16.6467 O   0  0  0  0  0  0
   35.3440   -4.2265   18.8061 C   0  0  0  0  0  0
   34.6632   -4.9321   19.7777 C   0  0  0  0  0  0
   34.2444   -4.3431   20.9549 C   0  0  0  0  0  0
   34.4940   -2.9858   21.1501 C   0  0  0  0  0  0
   35.1825   -2.2704   20.1867 C   0  0  0  0  0  0
   35.6147   -2.8927   19.0275 C   0  0  0  0  0  0
   34.1692   -2.1955   22.2129 O   0  0  0  0  0  0
   32.9508   -2.4944   22.8770 C   0  0  0  0  0  0
   32.7742   -1.5995   24.0747 C   0  0  0  0  0  0
   31.6592   -1.5168   24.9985 N   0  0  0  0  0  0
   31.5879   -2.7727   25.7722 C   0  0  0  0  0  0
   30.5339   -2.7510   26.8975 C   0  0  0  0  0  0
   29.1668   -2.5636   26.2201 C   0  0  0  0  0  0
   29.2571   -1.1438   25.5809 C   0  0  0  0  0  0
   30.3148   -1.2206   24.4661 C   0  0  0  0  0  0
   32.6503  -10.0119   13.6181 H   0  0  0  0  0  0
   41.0668   -5.8781   22.0281 H   0  0  0  0  0  0
  1  2  2  0  0  0
  1 16  1  0  0  0
  2  3  1  0  0  0
  3  4  1  0  0  0
  3  5  2  0  0  0
  4 35  1  0  0  0
  5  6  1  0  0  0
  6  7  1  0  0  0
  6 16  2  0  0  0
  7  8  1  0  0  0
  8  9  1  0  0  0
  8 17  2  0  0  0
  9 10  2  0  0  0
  9 15  1  0  0  0
 10 11  1  0  0  0
 11 12  2  0  0  0
 12 13  1  0  0  0
 12 14  1  0  0  0
 13 36  1  0  0  0
 14 15  2  0  0  0
 16 17  1  0  0  0
 17 18  1  0  0  0
 18 19  2  0  0  0
 18 20  1  0  0  0
 20 21  2  0  0  0
 20 25  1  0  0  0
 21 22  1  0  0  0
 22 23  2  0  0  0
 23 24  1  0  0  0
 23 26  1  0  0  0
 24 25  2  0  0  0
 26 27  1  0  0  0
 27 28  1  0  0  0
 28 29  1  0  0  0
 29 30  1  0  0  0
 29 34  1  0  0  0
 30 31  1  0  0  0
 31 32  1  0  0  0
 32 33  1  0  0  0
 33 34  1  0  0  0
M  END
>  <CHROM.0>
-55.88720833,-60.73405890,-115.21136800

>  <CHROM.1>
-178.32228921,-28.67163495,171.66897314,116.17177317,-11.07118716,-34.02475679
176.36566393,177.02970646,67.05308512,34.74483662,-5.19894444,19.96183802
1.13663866,0.24761911,-2.06182113

>  <FORMUL>
      RAL    C28 H27 N1 O4 S1

>  <HET>
 RAL  A 600      34

>  <HETNAM>
     RAL RALOXIFENE

>  <Name>
RAL.pdb

>  <RI>
0

>  <Rbt.Current_Directory>
/home/malgorzata/Desktop/rDOCK_IFD/Wyniki/6a_estrogen_receptor/IFD

>  <Rbt.Executable>
rbdock ($Id: //depot/dev/client3/rdock/2013.1/src/exe/rbdock.cxx#4 $)

>  <Rbt.Library>
libRbt.so (2013.1, Build901 2013/11/27)

>  <Rbt.Parameter_File>
/home/malgorzata/Desktop/rDock_2013.1_src/data/scripts/hard_docking.prm

>  <Rbt.Receptor>
cavity.prm

>  <SCORE>
-10.1484

>  <SCORE.INTER>
-7.66415

>  <SCORE.INTER.CONST>
1

>  <SCORE.INTER.POLAR>
-0.8

>  <SCORE.INTER.REPUL>
0

>  <SCORE.INTER.ROT>
7

>  <SCORE.INTER.VDW>
-17.3442

>  <SCORE.INTER.norm>
-0.225416

>  <SCORE.INTRA>
-2.70754

>  <SCORE.INTRA.DIHEDRAL>
-4.52799

>  <SCORE.INTRA.DIHEDRAL.0>
18.358

>  <SCORE.INTRA.POLAR>
0

>  <SCORE.INTRA.POLAR.0>
0

>  <SCORE.INTRA.REPUL>
0

>  <SCORE.INTRA.REPUL.0>
0

>  <SCORE.INTRA.VDW>
-0.443552

>  <SCORE.INTRA.VDW.0>
-1.94569

>  <SCORE.INTRA.norm>
-0.0796337

>  <SCORE.RESTR>
0.672204

>  <SCORE.RESTR.CAVITY>
0.672204

>  <SCORE.RESTR.norm>
0.0197707

>  <SCORE.SYSTEM>
-0.448924

>  <SCORE.SYSTEM.CONST>
0

>  <SCORE.SYSTEM.DIHEDRAL>
0.80433

>  <SCORE.SYSTEM.POLAR>
-0.0469606

>  <SCORE.SYSTEM.VDW>
-0.691423

>  <SCORE.SYSTEM.norm>
-0.0132037

>  <SCORE.heavy>
34

>  <SCORE.norm>
-0.298483

$$$$
RAL.pdb
  rDOCK(R)          3D
libRbt.so/2013.1/901 2013/11/27
 36 40  0  0  0  0  0  0  0  0999 V2000
   32.4867   -2.4082   17.9831 C   0  0  0  0  0  0
   31.5419   -1.6565   17.3334 C   0  0  0  0  0  0
   30.9577   -2.0615   16.1658 C   0  0  0  0  0  0
   30.0043   -1.2312   15.6316 O   0  0  0  0  0  0
   31.3165   -3.2962   15.6129 C   0  0  0  0  0  0
   32.2376   -4.0615   16.2848 C   0  0  0  0  0  0
   32.8946   -5.5203   15.8708 S   0  0  0  0  0  0
   33.8961   -5.7195   17.2150 C   0  0  0  0  0  0
   34.8445   -6.8580   17.3771 C   0  0  0  0  0  0
   34.7500   -7.8455   16.4159 C   0  0  0  0  0  0
   35.6593   -8.8901   16.4551 C   0  0  0  0  0  0
   36.6154   -8.9769   17.4478 C   0  0  0  0  0  0
   37.4904  -10.0637   17.4024 O   0  0  0  0  0  0
   36.7376   -7.9667   18.3791 C   0  0  0  0  0  0
   35.8319   -6.9144   18.3218 C   0  0  0  0  0  0
   32.8427   -3.6068   17.4911 C   0  0  0  0  0  0
   33.8180   -4.5545   18.0070 C   0  0  0  0  0  0
   34.5561   -4.3100   19.1493 C   0  0  0  0  0  0
   35.7878   -4.2226   19.0681 O   0  0  0  0  0  0
   33.9440   -4.1618   20.4743 C   0  0  0  0  0  0
   34.6823   -3.6920   21.5419 C   0  0  0  0  0  0
   34.1405   -3.5546   22.8052 C   0  0  0  0  0  0
   32.8142   -3.9313   23.0094 C   0  0  0  0  0  0
   32.0624   -4.3959   21.9450 C   0  0  0  0  0  0
   32.6231   -4.4979   20.6829 C   0  0  0  0  0  0
   32.0770   -3.8972   24.1560 O   0  0  0  0  0  0
   31.8735   -2.6203   24.7417 C   0  0  0  0  0  0
   30.9245   -2.7236   25.9059 C   0  0  0  0  0  0
   30.3080   -1.6637   26.6805 N   0  0  0  0  0  0
   29.4544   -2.2701   27.7220 C   0  0  0  0  0  0
   28.8594   -1.2480   28.7115 C   0  0  0  0  0  0
   27.9639   -0.3064   27.8902 C   0  0  0  0  0  0
   28.9617    0.4263   26.9414 C   0  0  0  0  0  0
   29.5214   -0.6327   25.9756 C   0  0  0  0  0  0
   29.5657   -1.4703   14.8389 H   0  0  0  0  0  0
   38.1619  -10.1520   18.0499 H   0  0  0  0  0  0
  1  2  2  0  0  0
  1 16  1  0  0  0
  2  3  1  0  0  0
  3  4  1  0  0  0
  3  5  2  0  0  0
  4 35  1  0  0  0
  5  6  1  0  0  0
  6  7  1  0  0  0
  6 16  2  0  0  0
  7  8  1  0  0  0
  8  9  1  0  0  0
  8 17  2  0  0  0
  9 10  2  0  0  0
  9 15  1  0  0  0
 10 11  1  0  0  0
 11 12  2  0  0  0
 12 13  1  0  0  0
 12 14  1  0  0  0
 13 36  1  0  0  0
 14 15  2  0  0  0
 16 17  1  0  0  0
 17 18  1  0  0  0
 18 19  2  0  0  0
 18 20  1  0  0  0
 20 21  2  0  0  0
 20 25  1  0  0  0
 21 22  1  0  0  0
 22 23  2  0  0  0
 23 24  1  0  0  0
 23 26  1  0  0  0
 24 25  2  0  0  0
 26 27  1  0  0  0
 27 28  1  0  0  0
 28 29  1  0  0  0
 29 30  1  0  0  0
 29 34  1  0  0  0
 30 31  1  0  0  0
 31 32  1  0  0  0
 32 33  1  0  0  0
 33 34  1  0  0  0
M  END
>  <CHROM.0>
-155.74159067,-60.73405890,-120.35753886

>  <CHROM.1>
-179.11416855,-7.14773593,179.05133702,63.37588409,-168.68147663,61.77796859
173.84044388,-171.40821395,-179.93250452,32.74444588,-4.11989356,20.40985647
0.93318424,0.82414925,-1.55334040

>  <FORMUL>
      RAL    C28 H27 N1 O4 S1

>  <HET>
 RAL  A 600      34

>  <HETNAM>
     RAL RALOXIFENE

>  <Name>
RAL.pdb

>  <RI>
0

>  <Rbt.Current_Directory>
/home/malgorzata/Desktop/rDOCK_IFD/Wyniki/6a_estrogen_receptor/IFD

>  <Rbt.Executable>
rbdock ($Id: //depot/dev/client3/rdock/2013.1/src/exe/rbdock.cxx#4 $)

>  <Rbt.Library>
libRbt.so (2013.1, Build901 2013/11/27)

>  <Rbt.Parameter_File>
/home/malgorzata/Desktop/rDock_2013.1_src/data/scripts/hard_docking.prm

>  <Rbt.Receptor>
cavity.prm

>  <SCORE>
-12.3506

>  <SCORE.INTER>
-10.575

>  <SCORE.INTER.CONST>
1

>  <SCORE.INTER.POLAR>
0

>  <SCORE.INTER.REPUL>
0

>  <SCORE.INTER.ROT>
7

>  <SCORE.INTER.VDW>
-22.975

>  <SCORE.INTER.norm>
-0.311029

>  <SCORE.INTRA>
-2.23153

>  <SCORE.INTRA.DIHEDRAL>
-4.21713

>  <SCORE.INTRA.DIHEDRAL.0>
18.358

>  <SCORE.INTRA.POLAR>
0

>  <SCORE.INTRA.POLAR.0>
0

>  <SCORE.INTRA.REPUL>
0

>  <SCORE.INTRA.REPUL.0>
0

>  <SCORE.INTRA.VDW>
-0.122967

>  <SCORE.INTRA.VDW.0>
-1.94569

>  <SCORE.INTRA.norm>
-0.0656332

>  <SCORE.RESTR>
0.508438

>  <SCORE.RESTR.CAVITY>
0.508438

>  <SCORE.RESTR.norm>
0.0149541

>  <SCORE.SYSTEM>
-0.0525762

>  <SCORE.SYSTEM.CONST>
0

>  <SCORE.SYSTEM.DIHEDRAL>
0.80137

>  <SCORE.SYSTEM.VDW>
-0.453261

>  <SCORE.SYSTEM.norm>
-0.00154636

>  <SCORE.heavy>
34

>  <SCORE.norm>
-0.363254

$$$$
RAL.pdb
  rDOCK(R)          3D
libRbt.so/2013.1/901 2013/11/27
 36 40  0  0  0  0  0  0  0  0999 V2000
   32.6838   -2.4390   26.7406 C   0  0  0  0  0  0
   33.3340   -2.8867   27.8617 C   0  0  0  0  0  0
   34.4385   -3.6896   27.7979 C   0  0  0  0  0  0
   35.0142   -4.0443   28.9924 O   0  0  0  0  0  0
   34.9444   -4.0602   26.5466 C   0  0  0  0  0  0
   34.3109   -3.5815   25.4264 C   0  0  0  0  0  0
   34.6309   -3.8746   23.8317 S   0  0  0  0  0  0
   33.4092   -2.9193   23.1651 C   0  0  0  0  0  0
   33.1253   -2.8422   21.7038 C   0  0  0  0  0  0
   31.9017   -3.3505   21.3133 C   0  0  0  0  0  0
   31.5355   -3.2325   19.9823 C   0  0  0  0  0  0
   32.3789   -2.6604   19.0504 C   0  0  0  0  0  0
   31.9212   -2.5820   17.7339 O   0  0  0  0  0  0
   33.5798   -2.1123   19.4504 C   0  0  0  0  0  0
   33.9313   -2.2204   20.7904 C   0  0  0  0  0  0
   33.1516   -2.7601   25.5226 C   0  0  0  0  0  0
   32.6206   -2.4049   24.2159 C   0  0  0  0  0  0
   31.4785   -1.6422   24.0626 C   0  0  0  0  0  0
   30.9198   -1.6021   22.9592 O   0  0  0  0  0  0
   30.8962   -0.8551   25.1551 C   0  0  0  0  0  0
   31.6657    0.0502   25.8578 C   0  0  0  0  0  0
   31.1522    0.7959   26.9012 C   0  0  0  0  0  0
   29.8223    0.6031   27.2709 C   0  0  0  0  0  0
   29.0394   -0.2957   26.5686 C   0  0  0  0  0  0
   29.5726   -1.0105   25.5091 C   0  0  0  0  0  0
   29.1090    1.2079   28.2633 O   0  0  0  0  0  0
   29.7903    2.1937   29.0242 C   0  0  0  0  0  0
   30.3044    1.6005   30.3089 C   0  0  0  0  0  0
   31.2325    0.5031   30.5030 N   0  0  0  0  0  0
   30.5359   -0.7664   30.2123 C   0  0  0  0  0  0
   31.4587   -2.0016   30.2360 C   0  0  0  0  0  0
   32.0139   -2.1121   31.6652 C   0  0  0  0  0  0
   32.8815   -0.8266   31.8301 C   0  0  0  0  0  0
   31.9166    0.3717   31.8042 C   0  0  0  0  0  0
   34.6184   -3.7808   29.7997 H   0  0  0  0  0  0
   31.0402   -2.8267   17.5287 H   0  0  0  0  0  0
  1  2  2  0  0  0
  1 16  1  0  0  0
  2  3  1  0  0  0
  3  4  1  0  0  0
  3  5  2  0  0  0
  4 35  1  0  0  0
  5  6  1  0  0  0
  6  7  1  0  0  0
  6 16  2  0  0  0
  7  8  1  0  0  0
  8  9  1  0  0  0
  8 17  2  0  0  0
  9 10  2  0  0  0
  9 15  1  0  0  0
 10 11  1  0  0  0
 11 12  2  0  0  0
 12 13  1  0  0  0
 12 14  1  0  0  0
 13 36  1  0  0  0
 14 15  2  0  0  0
 16 17  1  0  0  0
 17 18  1  0  0  0
 18 19  2  0  0  0
 18 20  1  0  0  0
 20 21  2  0  0  0
 20 25  1  0  0  0
 21 22  1  0  0  0
 22 23  2  0  0  0
 23 24  1  0  0  0
 23 26  1  0  0  0
 24 25  2  0  0  0
 26 27  1  0  0  0
 27 28  1  0  0  0
 28 29  1  0  0  0
 29 30  1  0  0  0
 29 34  1  0  0  0
 30 31  1  0  0  0
 31 32  1  0  0  0
 32 33  1  0  0  0
 33 34  1  0  0  0
M  END
>  <CHROM.0>
-50.33125511,-60.73405890,135.95307051

>  <CHROM.1>
3.71043136,114.14774218,6.44585325,15.38217523,53.39557484,1.27150958,-97.68911167
59.79818549,-74.71294698,32.15260935,-1.69206148,25.82211314,-1.77424620
0.73915300,-1.69747416

>  <FORMUL>
      RAL    C28 H27 N1 O4 S1

>  <HET>
 RAL  A 600      34

>  <HETNAM>
     RAL RALOXIFENE

>  <Name>
RAL.pdb

>  <RI>
0

>  <Rbt.Current_Directory>
/home/malgorzata/Desktop/rDOCK_IFD/Wyniki/6a_estrogen_receptor/IFD

>  <Rbt.Executable>
rbdock ($Id: //depot/dev/client3/rdock/2013.1/src/exe/rbdock.cxx#4 $)

>  <Rbt.Library>
libRbt.so (2013.1, Build901 2013/11/27)

>  <Rbt.Parameter_File>
/home/malgorzata/Desktop/rDock_2013.1_src/data/scripts/hard_docking.prm

>  <Rbt.Receptor>
cavity.prm

>  <SCORE>
-8.64799

>  <SCORE.INTER>
-12.0462

>  <SCORE.INTER.CONST>
1

>  <SCORE.INTER.POLAR>
0

>  <SCORE.INTER.REPUL>
0

>  <SCORE.INTER.ROT>
7

>  <SCORE.INTER.VDW>
-24.4462

>  <SCORE.INTER.norm>
-0.3543

>  <SCORE.INTRA>
3.80317

>  <SCORE.INTRA.DIHEDRAL>
6.58082

>  <SCORE.INTRA.DIHEDRAL.0>
18.358

>  <SCORE.INTRA.POLAR>
0

>  <SCORE.INTRA.POLAR.0>
0

>  <SCORE.INTRA.REPUL>
0

>  <SCORE.INTRA.REPUL.0>
0

>  <SCORE.INTRA.VDW>
0.512757

>  <SCORE.INTRA.VDW.0>
-1.94569

>  <SCORE.INTRA.norm>
0.111858

>  <SCORE.RESTR>
0

>  <SCORE.RESTR.CAVITY>
0

>  <SCORE.RESTR.norm>
0

>  <SCORE.SYSTEM>
-0.40495

>  <SCORE.SYSTEM.CONST>
0

>  <SCORE.SYSTEM.DIHEDRAL>
0.803441

>  <SCORE.SYSTEM.POLAR>
-0.0528871

>  <SCORE.SYSTEM.VDW>
-0.626855

>  <SCORE.SYSTEM.norm>
-0.0119103

>  <SCORE.heavy>
34

>  <SCORE.norm>
-0.254353

$$$$
