RAL.pdb
  rDOCK(R)          3D
libRbt.so/2013.1/901 2013/11/27
 36 40  0  0  0  0  0  0  0  0999 V2000
   32.1830    1.4975   24.2279 C   0  0  0  0  0  0
   32.8153    2.7036   24.3875 C   0  0  0  0  0  0
   32.1318    3.8670   24.6068 C   0  0  0  0  0  0
   32.8840    5.0021   24.7798 O   0  0  0  0  0  0
   30.7352    3.8353   24.6913 C   0  0  0  0  0  0
   30.1080    2.6203   24.5653 C   0  0  0  0  0  0
   28.4940    2.2651   24.5684 S   0  0  0  0  0  0
   28.6184    0.5939   24.3649 C   0  0  0  0  0  0
   27.4431   -0.3081   24.2009 C   0  0  0  0  0  0
   27.6831   -1.4648   23.4849 C   0  0  0  0  0  0
   26.6585   -2.3900   23.3680 C   0  0  0  0  0  0
   25.4112   -2.1572   23.9133 C   0  0  0  0  0  0
   24.4433   -3.1494   23.7473 O   0  0  0  0  0  0
   25.1874   -1.0235   24.6665 C   0  0  0  0  0  0
   26.2261   -0.1092   24.7924 C   0  0  0  0  0  0
   30.8444    1.4262   24.3205 C   0  0  0  0  0  0
   29.9780    0.2665   24.1783 C   0  0  0  0  0  0
   30.4687   -0.9953   23.9016 C   0  0  0  0  0  0
   30.1815   -1.9356   24.6530 O   0  0  0  0  0  0
   31.3375   -1.2758   22.7533 C   0  0  0  0  0  0
   31.4933   -0.3460   21.7451 C   0  0  0  0  0  0
   32.2918   -0.5846   20.6434 C   0  0  0  0  0  0
   32.9353   -1.8164   20.5372 C   0  0  0  0  0  0
   32.7930   -2.7528   21.5456 C   0  0  0  0  0  0
   32.0077   -2.4766   22.6523 C   0  0  0  0  0  0
   33.7539   -2.2768   19.5486 O   0  0  0  0  0  0
   33.7156   -1.5757   18.3150 C   0  0  0  0  0  0
   32.3718   -1.7456   17.6577 C   0  0  0  0  0  0
   31.6324   -2.9639   17.3889 N   0  0  0  0  0  0
   32.3503   -3.7386   16.3566 C   0  0  0  0  0  0
   31.7439   -5.1310   16.0900 C   0  0  0  0  0  0
   30.3175   -4.8998   15.5657 C   0  0  0  0  0  0
   29.5766   -4.2454   16.7722 C   0  0  0  0  0  0
   30.2141   -2.8625   16.9930 C   0  0  0  0  0  0
   33.5583    5.2155   24.1652 H   0  0  0  0  0  0
   24.6558   -3.9395   23.2904 H   0  0  0  0  0  0
  1  2  2  0  0  0
  1 16  1  0  0  0
  2  3  1  0  0  0
  3  4  1  0  0  0
  3  5  2  0  0  0
  4 35  1  0  0  0
  5  6  1  0  0  0
  6  7  1  0  0  0
  6 16  2  0  0  0
  7  8  1  0  0  0
  8  9  1  0  0  0
  8 17  2  0  0  0
  9 10  2  0  0  0
  9 15  1  0  0  0
 10 11  1  0  0  0
 11 12  2  0  0  0
 12 13  1  0  0  0
 12 14  1  0  0  0
 13 36  1  0  0  0
 14 15  2  0  0  0
 16 17  1  0  0  0
 17 18  1  0  0  0
 18 19  2  0  0  0
 18 20  1  0  0  0
 20 21  2  0  0  0
 20 25  1  0  0  0
 21 22  1  0  0  0
 22 23  2  0  0  0
 23 24  1  0  0  0
 23 26  1  0  0  0
 24 25  2  0  0  0
 26 27  1  0  0  0
 27 28  1  0  0  0
 28 29  1  0  0  0
 29 30  1  0  0  0
 29 34  1  0  0  0
 30 31  1  0  0  0
 31 32  1  0  0  0
 32 33  1  0  0  0
 33 34  1  0  0  0
M  END
>  <CHROM.0>
-96.64185977,59.09164376,172.45036202

>  <CHROM.1>
50.09242796,152.50421514,0.77594858,-54.51395078,-12.92432261,-16.69840258
-66.33272355,-50.83417416,-68.19360362,30.27365650,-0.75725189,21.96125892
-1.86376347,-0.44665331,-2.30066452

>  <FORMUL>
      RAL    C28 H27 N1 O4 S1

>  <HET>
 RAL  A 600      34

>  <HETNAM>
     RAL RALOXIFENE

>  <Name>
RAL.pdb

>  <RI>
0

>  <Rbt.Current_Directory>
/home/malgorzata/Desktop/rDOCK_IFD/test6/IFD

>  <Rbt.Executable>
rbdock ($Id: //depot/dev/client3/rdock/2013.1/src/exe/rbdock.cxx#4 $)

>  <Rbt.Library>
libRbt.so (2013.1, Build901 2013/11/27)

>  <Rbt.Parameter_File>
/home/malgorzata/Desktop/rDock_2013.1_src/data/scripts/hard_docking.prm

>  <Rbt.Receptor>
cavity.prm

>  <SCORE>
-3.77637

>  <SCORE.INTER>
-4.55352

>  <SCORE.INTER.CONST>
1

>  <SCORE.INTER.POLAR>
-0.675737

>  <SCORE.INTER.REPUL>
0

>  <SCORE.INTER.ROT>
7

>  <SCORE.INTER.VDW>
-14.656

>  <SCORE.INTER.norm>
-0.133927

>  <SCORE.INTRA>
-0.941799

>  <SCORE.INTRA.DIHEDRAL>
-4.05307

>  <SCORE.INTRA.DIHEDRAL.0>
18.358

>  <SCORE.INTRA.POLAR>
0

>  <SCORE.INTRA.POLAR.0>
0

>  <SCORE.INTRA.REPUL>
0

>  <SCORE.INTRA.REPUL.0>
0

>  <SCORE.INTRA.VDW>
1.08473

>  <SCORE.INTRA.VDW.0>
-1.94569

>  <SCORE.INTRA.norm>
-0.0277

>  <SCORE.RESTR>
1.62812

>  <SCORE.RESTR.CAVITY>
1.62812

>  <SCORE.RESTR.norm>
0.0478857

>  <SCORE.SYSTEM>
0.09083

>  <SCORE.SYSTEM.CONST>
0

>  <SCORE.SYSTEM.DIHEDRAL>
0.811376

>  <SCORE.SYSTEM.VDW>
-0.314858

>  <SCORE.SYSTEM.norm>
0.00267147

>  <SCORE.heavy>
34

>  <SCORE.norm>
-0.11107

$$$$
RAL.pdb
  rDOCK(R)          3D
libRbt.so/2013.1/901 2013/11/27
 36 40  0  0  0  0  0  0  0  0999 V2000
   30.8057   -4.8163   21.4407 C   0  0  0  0  0  0
   30.4959   -6.0853   21.8574 C   0  0  0  0  0  0
   31.0706   -7.1982   21.3098 C   0  0  0  0  0  0
   30.6965   -8.4093   21.8365 O   0  0  0  0  0  0
   32.0255   -7.0483   20.2976 C   0  0  0  0  0  0
   32.3582   -5.7745   19.9072 C   0  0  0  0  0  0
   33.3968   -5.2757   18.7225 S   0  0  0  0  0  0
   33.2029   -3.6107   18.9225 C   0  0  0  0  0  0
   33.8472   -2.5926   18.0449 C   0  0  0  0  0  0
   34.4558   -3.0927   16.9102 C   0  0  0  0  0  0
   34.9988   -2.1948   16.0056 C   0  0  0  0  0  0
   34.9760   -0.8338   16.2386 C   0  0  0  0  0  0
   35.5446   -0.0073   15.2677 O   0  0  0  0  0  0
   34.3277   -0.3340   17.3488 C   0  0  0  0  0  0
   33.7713   -1.2413   18.2420 C   0  0  0  0  0  0
   31.7309   -4.6333   20.4837 C   0  0  0  0  0  0
   32.2019   -3.3908   19.8922 C   0  0  0  0  0  0
   31.7081   -2.1566   20.2698 C   0  0  0  0  0  0
   31.2453   -1.3992   19.4077 O   0  0  0  0  0  0
   31.7195   -1.6878   21.6599 C   0  0  0  0  0  0
   31.1931   -0.4555   21.9912 C   0  0  0  0  0  0
   31.2014    0.0218   23.2875 C   0  0  0  0  0  0
   31.7874   -0.7570   24.2839 C   0  0  0  0  0  0
   32.3109   -1.9972   23.9648 C   0  0  0  0  0  0
   32.2648   -2.4629   22.6615 C   0  0  0  0  0  0
   31.9221   -0.4925   25.6148 O   0  0  0  0  0  0
   31.8174    0.8683   26.0051 C   0  0  0  0  0  0
   30.4070    1.3599   25.8167 C   0  0  0  0  0  0
   29.1658    0.7853   26.2991 N   0  0  0  0  0  0
   28.0362    1.4638   25.6320 C   0  0  0  0  0  0
   26.6619    0.8397   25.9474 C   0  0  0  0  0  0
   26.4442    0.9905   27.4616 C   0  0  0  0  0  0
   27.5618    0.1029   28.0908 C   0  0  0  0  0  0
   28.9069    0.7689   27.7521 C   0  0  0  0  0  0
   30.0484   -8.4463   22.5121 H   0  0  0  0  0  0
   35.4960    0.9241   15.3585 H   0  0  0  0  0  0
  1  2  2  0  0  0
  1 16  1  0  0  0
  2  3  1  0  0  0
  3  4  1  0  0  0
  3  5  2  0  0  0
  4 35  1  0  0  0
  5  6  1  0  0  0
  6  7  1  0  0  0
  6 16  2  0  0  0
  7  8  1  0  0  0
  8  9  1  0  0  0
  8 17  2  0  0  0
  9 10  2  0  0  0
  9 15  1  0  0  0
 10 11  1  0  0  0
 11 12  2  0  0  0
 12 13  1  0  0  0
 12 14  1  0  0  0
 13 36  1  0  0  0
 14 15  2  0  0  0
 16 17  1  0  0  0
 17 18  1  0  0  0
 18 19  2  0  0  0
 18 20  1  0  0  0
 20 21  2  0  0  0
 20 25  1  0  0  0
 21 22  1  0  0  0
 22 23  2  0  0  0
 23 24  1  0  0  0
 23 26  1  0  0  0
 24 25  2  0  0  0
 26 27  1  0  0  0
 27 28  1  0  0  0
 28 29  1  0  0  0
 29 30  1  0  0  0
 29 34  1  0  0  0
 30 31  1  0  0  0
 31 32  1  0  0  0
 32 33  1  0  0  0
 33 34  1  0  0  0
M  END
>  <CHROM.0>
-114.64335083,179.95316905,-91.67342136

>  <CHROM.1>
2.61653904,9.88569293,175.69185278,55.45638213,-178.86336246,-20.01849853
68.54514610,52.33331475,-168.48038040,31.62345698,-2.15312969,21.68632200
0.56273692,-1.00010790,-2.92769191

>  <FORMUL>
      RAL    C28 H27 N1 O4 S1

>  <HET>
 RAL  A 600      34

>  <HETNAM>
     RAL RALOXIFENE

>  <Name>
RAL.pdb

>  <RI>
0

>  <Rbt.Current_Directory>
/home/malgorzata/Desktop/rDOCK_IFD/test6/IFD

>  <Rbt.Executable>
rbdock ($Id: //depot/dev/client3/rdock/2013.1/src/exe/rbdock.cxx#4 $)

>  <Rbt.Library>
libRbt.so (2013.1, Build901 2013/11/27)

>  <Rbt.Parameter_File>
/home/malgorzata/Desktop/rDock_2013.1_src/data/scripts/hard_docking.prm

>  <Rbt.Receptor>
cavity.prm

>  <SCORE>
-1.5418

>  <SCORE.INTER>
0.283116

>  <SCORE.INTER.CONST>
1

>  <SCORE.INTER.POLAR>
0

>  <SCORE.INTER.REPUL>
0

>  <SCORE.INTER.ROT>
7

>  <SCORE.INTER.VDW>
-12.1169

>  <SCORE.INTER.norm>
0.00832694

>  <SCORE.INTRA>
-2.56435

>  <SCORE.INTRA.DIHEDRAL>
-8.61998

>  <SCORE.INTRA.DIHEDRAL.0>
18.358

>  <SCORE.INTRA.POLAR>
0

>  <SCORE.INTRA.POLAR.0>
0

>  <SCORE.INTRA.REPUL>
0

>  <SCORE.INTRA.REPUL.0>
0

>  <SCORE.INTRA.VDW>
1.74564

>  <SCORE.INTRA.VDW.0>
-1.94569

>  <SCORE.INTRA.norm>
-0.0754221

>  <SCORE.RESTR>
0.589363

>  <SCORE.RESTR.CAVITY>
0.589363

>  <SCORE.RESTR.norm>
0.0173342

>  <SCORE.SYSTEM>
0.150076

>  <SCORE.SYSTEM.CONST>
0

>  <SCORE.SYSTEM.DIHEDRAL>
0.803947

>  <SCORE.SYSTEM.VDW>
-0.251897

>  <SCORE.SYSTEM.norm>
0.00441401

>  <SCORE.heavy>
34

>  <SCORE.norm>
-0.0453469

$$$$
RAL.pdb
  rDOCK(R)          3D
libRbt.so/2013.1/901 2013/11/27
 36 40  0  0  0  0  0  0  0  0999 V2000
   37.0160   -6.6224   21.1957 C   0  0  0  0  0  0
   37.8008   -7.7348   21.3586 C   0  0  0  0  0  0
   39.1432   -7.7300   21.1003 C   0  0  0  0  0  0
   39.8210   -8.9008   21.3321 O   0  0  0  0  0  0
   39.7535   -6.5463   20.6700 C   0  0  0  0  0  0
   38.9704   -5.4257   20.5412 C   0  0  0  0  0  0
   39.3780   -3.9132   20.0145 S   0  0  0  0  0  0
   37.8608   -3.1901   20.1724 C   0  0  0  0  0  0
   37.5647   -1.7911   19.7518 C   0  0  0  0  0  0
   38.6547   -1.0634   19.3154 C   0  0  0  0  0  0
   38.4387    0.2152   18.8275 C   0  0  0  0  0  0
   37.1771    0.7766   18.8097 C   0  0  0  0  0  0
   37.0574    2.0691   18.2959 O   0  0  0  0  0  0
   36.0844    0.0321   19.2026 C   0  0  0  0  0  0
   36.3086   -1.2554   19.6746 C   0  0  0  0  0  0
   37.5707   -5.4639   20.8013 C   0  0  0  0  0  0
   36.9325   -4.1793   20.5599 C   0  0  0  0  0  0
   35.5725   -3.9875   20.7126 C   0  0  0  0  0  0
   34.8857   -3.7027   19.7235 O   0  0  0  0  0  0
   34.8962   -4.0917   22.0103 C   0  0  0  0  0  0
   35.5483   -4.6275   23.1026 C   0  0  0  0  0  0
   34.9355   -4.7536   24.3342 C   0  0  0  0  0  0
   33.6072   -4.3524   24.4652 C   0  0  0  0  0  0
   32.9462   -3.8065   23.3793 C   0  0  0  0  0  0
   33.5934   -3.6668   22.1631 C   0  0  0  0  0  0
   32.8012   -4.3914   25.5644 O   0  0  0  0  0  0
   33.4266   -4.1638   26.8182 C   0  0  0  0  0  0
   34.0155   -2.7791   26.8659 C   0  0  0  0  0  0
   34.9999   -2.2346   27.7813 N   0  0  0  0  0  0
   34.3506   -1.9823   29.0836 C   0  0  0  0  0  0
   35.3289   -1.5425   30.1915 C   0  0  0  0  0  0
   35.9469   -0.2116   29.7335 C   0  0  0  0  0  0
   36.7611   -0.5955   28.4598 C   0  0  0  0  0  0
   35.7422   -1.0210   27.3881 C   0  0  0  0  0  0
   40.7494   -8.9366   21.2108 H   0  0  0  0  0  0
   37.7956    2.4841   17.8949 H   0  0  0  0  0  0
  1  2  2  0  0  0
  1 16  1  0  0  0
  2  3  1  0  0  0
  3  4  1  0  0  0
  3  5  2  0  0  0
  4 35  1  0  0  0
  5  6  1  0  0  0
  6  7  1  0  0  0
  6 16  2  0  0  0
  7  8  1  0  0  0
  8  9  1  0  0  0
  8 17  2  0  0  0
  9 10  2  0  0  0
  9 15  1  0  0  0
 10 11  1  0  0  0
 11 12  2  0  0  0
 12 13  1  0  0  0
 12 14  1  0  0  0
 13 36  1  0  0  0
 14 15  2  0  0  0
 16 17  1  0  0  0
 17 18  1  0  0  0
 18 19  2  0  0  0
 18 20  1  0  0  0
 20 21  2  0  0  0
 20 25  1  0  0  0
 21 22  1  0  0  0
 22 23  2  0  0  0
 23 24  1  0  0  0
 23 26  1  0  0  0
 24 25  2  0  0  0
 26 27  1  0  0  0
 27 28  1  0  0  0
 28 29  1  0  0  0
 29 30  1  0  0  0
 29 34  1  0  0  0
 30 31  1  0  0  0
 31 32  1  0  0  0
 32 33  1  0  0  0
 33 34  1  0  0  0
M  END
>  <CHROM.0>
94.54053765,-57.11079125,-40.87263746

>  <CHROM.1>
-176.99549379,-5.21493688,6.73990109,64.99114830,-12.00501498,34.38763766
62.48957978,-163.44545515,-74.98998157,36.41712551,-3.30822361,22.71904203
-0.24434568,-1.16858155,2.70827875

>  <FORMUL>
      RAL    C28 H27 N1 O4 S1

>  <HET>
 RAL  A 600      34

>  <HETNAM>
     RAL RALOXIFENE

>  <Name>
RAL.pdb

>  <RI>
0

>  <Rbt.Current_Directory>
/home/malgorzata/Desktop/rDOCK_IFD/test6/IFD

>  <Rbt.Executable>
rbdock ($Id: //depot/dev/client3/rdock/2013.1/src/exe/rbdock.cxx#4 $)

>  <Rbt.Library>
libRbt.so (2013.1, Build901 2013/11/27)

>  <Rbt.Parameter_File>
/home/malgorzata/Desktop/rDock_2013.1_src/data/scripts/hard_docking.prm

>  <Rbt.Receptor>
cavity.prm

>  <SCORE>
-10.7664

>  <SCORE.INTER>
-10.6478

>  <SCORE.INTER.CONST>
1

>  <SCORE.INTER.POLAR>
0

>  <SCORE.INTER.REPUL>
0

>  <SCORE.INTER.ROT>
7

>  <SCORE.INTER.VDW>
-23.0478

>  <SCORE.INTER.norm>
-0.313172

>  <SCORE.INTRA>
-1.59233

>  <SCORE.INTRA.DIHEDRAL>
-5.1463

>  <SCORE.INTRA.DIHEDRAL.0>
18.358

>  <SCORE.INTRA.POLAR>
0

>  <SCORE.INTRA.POLAR.0>
0

>  <SCORE.INTRA.REPUL>
0

>  <SCORE.INTRA.REPUL.0>
0

>  <SCORE.INTRA.VDW>
0.980817

>  <SCORE.INTRA.VDW.0>
-1.94569

>  <SCORE.INTRA.norm>
-0.0468333

>  <SCORE.RESTR>
1.29613

>  <SCORE.RESTR.CAVITY>
1.29613

>  <SCORE.RESTR.norm>
0.0381215

>  <SCORE.SYSTEM>
0.177639

>  <SCORE.SYSTEM.CONST>
0

>  <SCORE.SYSTEM.DIHEDRAL>
0.848842

>  <SCORE.SYSTEM.VDW>
-0.246782

>  <SCORE.SYSTEM.norm>
0.00522467

>  <SCORE.heavy>
34

>  <SCORE.norm>
-0.316659

$$$$
RAL.pdb
  rDOCK(R)          3D
libRbt.so/2013.1/901 2013/11/27
 36 40  0  0  0  0  0  0  0  0999 V2000
   32.1784    2.2203   26.3530 C   0  0  0  0  0  0
   33.4027    2.4870   26.9096 C   0  0  0  0  0  0
   33.6945    2.1981   28.2135 C   0  0  0  0  0  0
   34.9666    2.4874   28.6404 O   0  0  0  0  0  0
   32.7209    1.5910   29.0149 C   0  0  0  0  0  0
   31.5078    1.2942   28.4441 C   0  0  0  0  0  0
   30.1572    0.6329   29.1294 S   0  0  0  0  0  0
   29.1748    0.6235   27.7567 C   0  0  0  0  0  0
   27.7455    0.2007   27.7665 C   0  0  0  0  0  0
   27.3665   -0.5714   28.8474 C   0  0  0  0  0  0
   26.0326   -0.9268   28.9658 C   0  0  0  0  0  0
   25.1016   -0.5603   28.0140 C   0  0  0  0  0  0
   23.7806   -0.9613   28.2212 O   0  0  0  0  0  0
   25.4728    0.2490   26.9605 C   0  0  0  0  0  0
   26.8096    0.6144   26.8590 C   0  0  0  0  0  0
   31.2254    1.6218   27.0872 C   0  0  0  0  0  0
   29.8698    1.2580   26.7055 C   0  0  0  0  0  0
   29.3612    1.5126   25.4461 C   0  0  0  0  0  0
   28.4445    2.3337   25.3171 O   0  0  0  0  0  0
   29.8515    0.8370   24.2397 C   0  0  0  0  0  0
   30.9222   -0.0317   24.3057 C   0  0  0  0  0  0
   31.4177   -0.6724   23.1866 C   0  0  0  0  0  0
   30.8329   -0.4073   21.9496 C   0  0  0  0  0  0
   29.7541    0.4554   21.8726 C   0  0  0  0  0  0
   29.2604    1.0632   23.0147 C   0  0  0  0  0  0
   31.1546   -0.9053   20.7216 O   0  0  0  0  0  0
   32.4739   -1.4054   20.5653 C   0  0  0  0  0  0
   32.6760   -1.9205   19.1652 C   0  0  0  0  0  0
   32.0009   -3.0086   18.4843 N   0  0  0  0  0  0
   32.6283   -3.2047   17.1617 C   0  0  0  0  0  0
   32.0982   -4.4349   16.3981 C   0  0  0  0  0  0
   30.6004   -4.1916   16.1520 C   0  0  0  0  0  0
   29.9831   -4.1777   17.5843 C   0  0  0  0  0  0
   30.5385   -2.9338   18.2996 C   0  0  0  0  0  0
   35.2292    2.2682   29.5128 H   0  0  0  0  0  0
   23.4973   -1.2172   29.0770 H   0  0  0  0  0  0
  1  2  2  0  0  0
  1 16  1  0  0  0
  2  3  1  0  0  0
  3  4  1  0  0  0
  3  5  2  0  0  0
  4 35  1  0  0  0
  5  6  1  0  0  0
  6  7  1  0  0  0
  6 16  2  0  0  0
  7  8  1  0  0  0
  8  9  1  0  0  0
  8 17  2  0  0  0
  9 10  2  0  0  0
  9 15  1  0  0  0
 10 11  1  0  0  0
 11 12  2  0  0  0
 12 13  1  0  0  0
 12 14  1  0  0  0
 13 36  1  0  0  0
 14 15  2  0  0  0
 16 17  1  0  0  0
 17 18  1  0  0  0
 18 19  2  0  0  0
 18 20  1  0  0  0
 20 21  2  0  0  0
 20 25  1  0  0  0
 21 22  1  0  0  0
 22 23  2  0  0  0
 23 24  1  0  0  0
 23 26  1  0  0  0
 24 25  2  0  0  0
 26 27  1  0  0  0
 27 28  1  0  0  0
 28 29  1  0  0  0
 29 30  1  0  0  0
 29 34  1  0  0  0
 30 31  1  0  0  0
 31 32  1  0  0  0
 32 33  1  0  0  0
 33 34  1  0  0  0
M  END
>  <CHROM.0>
145.87176427,-56.87393807,-107.37637484

>  <CHROM.1>
-176.90713064,-19.38090148,18.87332745,67.35271540,-4.42433170,-22.49561430
179.87309995,-62.49179536,-175.22376415,30.16736481,-0.20800986,24.43842915
-1.78748942,-0.27464043,-1.99046266

>  <FORMUL>
      RAL    C28 H27 N1 O4 S1

>  <HET>
 RAL  A 600      34

>  <HETNAM>
     RAL RALOXIFENE

>  <Name>
RAL.pdb

>  <RI>
0

>  <Rbt.Current_Directory>
/home/malgorzata/Desktop/rDOCK_IFD/test6/IFD

>  <Rbt.Executable>
rbdock ($Id: //depot/dev/client3/rdock/2013.1/src/exe/rbdock.cxx#4 $)

>  <Rbt.Library>
libRbt.so (2013.1, Build901 2013/11/27)

>  <Rbt.Parameter_File>
/home/malgorzata/Desktop/rDock_2013.1_src/data/scripts/hard_docking.prm

>  <Rbt.Receptor>
cavity.prm

>  <SCORE>
-12.0919

>  <SCORE.INTER>
-8.96605

>  <SCORE.INTER.CONST>
1

>  <SCORE.INTER.POLAR>
-0.4334

>  <SCORE.INTER.REPUL>
0

>  <SCORE.INTER.ROT>
7

>  <SCORE.INTER.VDW>
-19.8925

>  <SCORE.INTER.norm>
-0.263707

>  <SCORE.INTRA>
-2.84022

>  <SCORE.INTRA.DIHEDRAL>
-6.03637

>  <SCORE.INTRA.DIHEDRAL.0>
18.358

>  <SCORE.INTRA.POLAR>
0

>  <SCORE.INTRA.POLAR.0>
0

>  <SCORE.INTRA.REPUL>
0

>  <SCORE.INTRA.REPUL.0>
0

>  <SCORE.INTRA.VDW>
0.177965

>  <SCORE.INTRA.VDW.0>
-1.94569

>  <SCORE.INTRA.norm>
-0.0835359

>  <SCORE.RESTR>
0.00771392

>  <SCORE.RESTR.CAVITY>
0.00771392

>  <SCORE.RESTR.norm>
0.00022688

>  <SCORE.SYSTEM>
-0.293304

>  <SCORE.SYSTEM.CONST>
0

>  <SCORE.SYSTEM.DIHEDRAL>
0.85467

>  <SCORE.SYSTEM.VDW>
-0.720639

>  <SCORE.SYSTEM.norm>
-0.0086266

>  <SCORE.heavy>
34

>  <SCORE.norm>
-0.355643

$$$$
RAL.pdb
  rDOCK(R)          3D
libRbt.so/2013.1/901 2013/11/27
 36 40  0  0  0  0  0  0  0  0999 V2000
   27.8180   -2.2544   22.3596 C   0  0  0  0  0  0
   26.5825   -1.6601   22.3491 C   0  0  0  0  0  0
   26.3065   -0.5542   21.5944 C   0  0  0  0  0  0
   25.0221   -0.0734   21.6496 O   0  0  0  0  0  0
   27.3099   -0.0101   20.7845 C   0  0  0  0  0  0
   28.5358   -0.6287   20.7716 C   0  0  0  0  0  0
   29.9182   -0.2059   19.9708 S   0  0  0  0  0  0
   30.8986   -1.4720   20.5051 C   0  0  0  0  0  0
   32.3472   -1.5912   20.1747 C   0  0  0  0  0  0
   32.8866   -0.5180   19.4925 C   0  0  0  0  0  0
   34.2468   -0.5227   19.2296 C   0  0  0  0  0  0
   35.0487   -1.5850   19.5980 C   0  0  0  0  0  0
   36.4084   -1.4979   19.2939 O   0  0  0  0  0  0
   34.5172   -2.6339   20.3192 C   0  0  0  0  0  0
   33.1551   -2.6125   20.5930 C   0  0  0  0  0  0
   28.8003   -1.7701   21.5811 C   0  0  0  0  0  0
   30.1719   -2.2342   21.4439 C   0  0  0  0  0  0
   30.6660   -3.3073   22.1608 C   0  0  0  0  0  0
   30.2869   -4.4510   21.8787 O   0  0  0  0  0  0
   31.6199   -3.1538   23.2648 C   0  0  0  0  0  0
   32.0150   -4.2462   24.0103 C   0  0  0  0  0  0
   32.8997   -4.1337   25.0653 C   0  0  0  0  0  0
   33.3830   -2.8705   25.4019 C   0  0  0  0  0  0
   33.0001   -1.7696   24.6566 C   0  0  0  0  0  0
   32.1329   -1.9151   23.5868 C   0  0  0  0  0  0
   34.2447   -2.5163   26.3976 O   0  0  0  0  0  0
   33.6632   -2.1487   27.6392 C   0  0  0  0  0  0
   33.0680   -0.7688   27.5504 C   0  0  0  0  0  0
   32.3505   -0.0151   28.5607 N   0  0  0  0  0  0
   31.0165   -0.6205   28.7482 C   0  0  0  0  0  0
   30.2097   -0.0010   29.9071 C   0  0  0  0  0  0
   29.9849    1.4771   29.5495 C   0  0  0  0  0  0
   31.4213    2.0847   29.5485 C   0  0  0  0  0  0
   32.1802    1.4393   28.3759 C   0  0  0  0  0  0
   24.7719    0.6568   21.1185 H   0  0  0  0  0  0
   36.7504   -0.7224   18.8944 H   0  0  0  0  0  0
  1  2  2  0  0  0
  1 16  1  0  0  0
  2  3  1  0  0  0
  3  4  1  0  0  0
  3  5  2  0  0  0
  4 35  1  0  0  0
  5  6  1  0  0  0
  6  7  1  0  0  0
  6 16  2  0  0  0
  7  8  1  0  0  0
  8  9  1  0  0  0
  8 17  2  0  0  0
  9 10  2  0  0  0
  9 15  1  0  0  0
 10 11  1  0  0  0
 11 12  2  0  0  0
 12 13  1  0  0  0
 12 14  1  0  0  0
 13 36  1  0  0  0
 14 15  2  0  0  0
 16 17  1  0  0  0
 17 18  1  0  0  0
 18 19  2  0  0  0
 18 20  1  0  0  0
 20 21  2  0  0  0
 20 25  1  0  0  0
 21 22  1  0  0  0
 22 23  2  0  0  0
 23 24  1  0  0  0
 23 26  1  0  0  0
 24 25  2  0  0  0
 26 27  1  0  0  0
 27 28  1  0  0  0
 28 29  1  0  0  0
 29 30  1  0  0  0
 29 34  1  0  0  0
 30 31  1  0  0  0
 31 32  1  0  0  0
 32 33  1  0  0  0
 33 34  1  0  0  0
M  END
>  <CHROM.0>
-86.39970620,178.89416152,-111.90620924

>  <CHROM.1>
-177.00224802,5.84698259,2.96871488,-108.14089948,175.54842255,-91.80307930
-75.47665180,178.29129621,-71.79656714,31.26316152,-1.35815943,23.41432335
1.67241141,0.21286281,-1.74292039

>  <FORMUL>
      RAL    C28 H27 N1 O4 S1

>  <HET>
 RAL  A 600      34

>  <HETNAM>
     RAL RALOXIFENE

>  <Name>
RAL.pdb

>  <RI>
0

>  <Rbt.Current_Directory>
/home/malgorzata/Desktop/rDOCK_IFD/test6/IFD

>  <Rbt.Executable>
rbdock ($Id: //depot/dev/client3/rdock/2013.1/src/exe/rbdock.cxx#4 $)

>  <Rbt.Library>
libRbt.so (2013.1, Build901 2013/11/27)

>  <Rbt.Parameter_File>
/home/malgorzata/Desktop/rDock_2013.1_src/data/scripts/hard_docking.prm

>  <Rbt.Receptor>
cavity.prm

>  <SCORE>
0.349061

>  <SCORE.INTER>
0.881376

>  <SCORE.INTER.CONST>
1

>  <SCORE.INTER.POLAR>
0

>  <SCORE.INTER.REPUL>
0

>  <SCORE.INTER.ROT>
7

>  <SCORE.INTER.VDW>
-11.5186

>  <SCORE.INTER.norm>
0.0259228

>  <SCORE.INTRA>
-0.772414

>  <SCORE.INTRA.DIHEDRAL>
-1.30483

>  <SCORE.INTRA.DIHEDRAL.0>
18.358

>  <SCORE.INTRA.POLAR>
0

>  <SCORE.INTRA.POLAR.0>
0

>  <SCORE.INTRA.REPUL>
0

>  <SCORE.INTRA.REPUL.0>
0

>  <SCORE.INTRA.VDW>
-0.119999

>  <SCORE.INTRA.VDW.0>
-1.94569

>  <SCORE.INTRA.norm>
-0.0227181

>  <SCORE.RESTR>
0.0942892

>  <SCORE.RESTR.CAVITY>
0.0942892

>  <SCORE.RESTR.norm>
0.00277321

>  <SCORE.SYSTEM>
0.14581

>  <SCORE.SYSTEM.CONST>
0

>  <SCORE.SYSTEM.DIHEDRAL>
0.813377

>  <SCORE.SYSTEM.VDW>
-0.260878

>  <SCORE.SYSTEM.norm>
0.00428853

>  <SCORE.heavy>
34

>  <SCORE.norm>
0.0102665

$$$$
RAL.pdb
  rDOCK(R)          3D
libRbt.so/2013.1/901 2013/11/27
 36 40  0  0  0  0  0  0  0  0999 V2000
   28.2247   -2.1123   28.1871 C   0  0  0  0  0  0
   26.9578   -2.3335   28.6622 C   0  0  0  0  0  0
   25.9342   -1.4498   28.4617 C   0  0  0  0  0  0
   24.7062   -1.8029   28.9630 O   0  0  0  0  0  0
   26.1723   -0.2808   27.7300 C   0  0  0  0  0  0
   27.4339   -0.0796   27.2265 C   0  0  0  0  0  0
   28.0346    1.2048   26.3777 S   0  0  0  0  0  0
   29.6108    0.6368   26.1715 C   0  0  0  0  0  0
   30.6963    1.4284   25.5259 C   0  0  0  0  0  0
   30.3003    2.6306   24.9728 C   0  0  0  0  0  0
   31.2720    3.4576   24.4332 C   0  0  0  0  0  0
   32.6015    3.0851   24.4050 C   0  0  0  0  0  0
   33.5084    3.9862   23.8445 O   0  0  0  0  0  0
   33.0009    1.9058   24.9987 C   0  0  0  0  0  0
   32.0214    1.0905   25.5524 C   0  0  0  0  0  0
   28.4858   -1.0094   27.4653 C   0  0  0  0  0  0
   29.7444   -0.5769   26.8783 C   0  0  0  0  0  0
   30.9124   -1.3032   27.0117 C   0  0  0  0  0  0
   31.4190   -1.4360   28.1328 O   0  0  0  0  0  0
   31.5986   -1.9206   25.8715 C   0  0  0  0  0  0
   31.0631   -1.8426   24.6016 C   0  0  0  0  0  0
   31.6761   -2.4255   23.5094 C   0  0  0  0  0  0
   32.8574   -3.1385   23.7062 C   0  0  0  0  0  0
   33.4075   -3.2165   24.9731 C   0  0  0  0  0  0
   32.7860   -2.5996   26.0459 C   0  0  0  0  0  0
   33.6250   -3.8000   22.7937 O   0  0  0  0  0  0
   33.5932   -3.3085   21.4624 C   0  0  0  0  0  0
   34.5627   -4.0714   20.5994 C   0  0  0  0  0  0
   36.0022   -4.1926   20.7276 N   0  0  0  0  0  0
   36.6125   -2.8647   20.5145 C   0  0  0  0  0  0
   38.1321   -2.8297   20.7742 C   0  0  0  0  0  0
   38.7768   -3.7874   19.7591 C   0  0  0  0  0  0
   38.2244   -5.1888   20.1635 C   0  0  0  0  0  0
   36.7117   -5.1725   19.8821 C   0  0  0  0  0  0
   24.6145   -2.5855   29.4701 H   0  0  0  0  0  0
   33.3127    4.9025   23.8341 H   0  0  0  0  0  0
  1  2  2  0  0  0
  1 16  1  0  0  0
  2  3  1  0  0  0
  3  4  1  0  0  0
  3  5  2  0  0  0
  4 35  1  0  0  0
  5  6  1  0  0  0
  6  7  1  0  0  0
  6 16  2  0  0  0
  7  8  1  0  0  0
  8  9  1  0  0  0
  8 17  2  0  0  0
  9 10  2  0  0  0
  9 15  1  0  0  0
 10 11  1  0  0  0
 11 12  2  0  0  0
 12 13  1  0  0  0
 12 14  1  0  0  0
 13 36  1  0  0  0
 14 15  2  0  0  0
 16 17  1  0  0  0
 17 18  1  0  0  0
 18 19  2  0  0  0
 18 20  1  0  0  0
 20 21  2  0  0  0
 20 25  1  0  0  0
 21 22  1  0  0  0
 22 23  2  0  0  0
 23 24  1  0  0  0
 23 26  1  0  0  0
 24 25  2  0  0  0
 26 27  1  0  0  0
 27 28  1  0  0  0
 28 29  1  0  0  0
 29 30  1  0  0  0
 29 34  1  0  0  0
 30 31  1  0  0  0
 31 32  1  0  0  0
 32 33  1  0  0  0
 33 34  1  0  0  0
M  END
>  <CHROM.0>
-86.96216491,-178.25971774,-145.81596269

>  <CHROM.1>
4.43667813,-6.29551151,25.48150139,115.05326712,-2.65760428,28.40305647,175.79474969
-60.93563921,-65.02673731,31.71679420,-1.21411980,24.71782163,2.81356137
0.64026810,0.04016509

>  <FORMUL>
      RAL    C28 H27 N1 O4 S1

>  <HET>
 RAL  A 600      34

>  <HETNAM>
     RAL RALOXIFENE

>  <Name>
RAL.pdb

>  <RI>
0

>  <Rbt.Current_Directory>
/home/malgorzata/Desktop/rDOCK_IFD/test6/IFD

>  <Rbt.Executable>
rbdock ($Id: //depot/dev/client3/rdock/2013.1/src/exe/rbdock.cxx#4 $)

>  <Rbt.Library>
libRbt.so (2013.1, Build901 2013/11/27)

>  <Rbt.Parameter_File>
/home/malgorzata/Desktop/rDock_2013.1_src/data/scripts/hard_docking.prm

>  <Rbt.Receptor>
cavity.prm

>  <SCORE>
-16.0931

>  <SCORE.INTER>
-14.429

>  <SCORE.INTER.CONST>
1

>  <SCORE.INTER.POLAR>
-2.01638

>  <SCORE.INTER.REPUL>
0

>  <SCORE.INTER.ROT>
7

>  <SCORE.INTER.VDW>
-19.9733

>  <SCORE.INTER.norm>
-0.424383

>  <SCORE.INTRA>
-3.0461

>  <SCORE.INTRA.DIHEDRAL>
-6.44503

>  <SCORE.INTRA.DIHEDRAL.0>
18.358

>  <SCORE.INTRA.POLAR>
0

>  <SCORE.INTRA.POLAR.0>
0

>  <SCORE.INTRA.REPUL>
0

>  <SCORE.INTRA.REPUL.0>
0

>  <SCORE.INTRA.VDW>
0.176417

>  <SCORE.INTRA.VDW.0>
-1.94569

>  <SCORE.INTRA.norm>
-0.0895912

>  <SCORE.RESTR>
1.24007

>  <SCORE.RESTR.CAVITY>
1.24007

>  <SCORE.RESTR.norm>
0.0364727

>  <SCORE.SYSTEM>
0.141947

>  <SCORE.SYSTEM.CONST>
0

>  <SCORE.SYSTEM.DIHEDRAL>
0.827041

>  <SCORE.SYSTEM.VDW>
-0.271574

>  <SCORE.SYSTEM.norm>
0.0041749

>  <SCORE.heavy>
34

>  <SCORE.norm>
-0.473327

$$$$
RAL.pdb
  rDOCK(R)          3D
libRbt.so/2013.1/901 2013/11/27
 36 40  0  0  0  0  0  0  0  0999 V2000
   36.4651   -9.2717   19.9689 C   0  0  0  0  0  0
   36.0718  -10.4238   19.3382 C   0  0  0  0  0  0
   36.0663  -10.5500   17.9771 C   0  0  0  0  0  0
   35.6789  -11.7656   17.4710 O   0  0  0  0  0  0
   36.4930   -9.4757   17.1880 C   0  0  0  0  0  0
   36.9186   -8.3359   17.8245 C   0  0  0  0  0  0
   37.4271   -6.9006   17.1821 S   0  0  0  0  0  0
   37.7452   -6.0922   18.6295 C   0  0  0  0  0  0
   38.1690   -4.6651   18.7027 C   0  0  0  0  0  0
   38.5193   -4.2180   19.9619 C   0  0  0  0  0  0
   39.0060   -2.9271   20.0892 C   0  0  0  0  0  0
   39.1057   -2.0835   19.0005 C   0  0  0  0  0  0
   39.6113   -0.8020   19.2262 O   0  0  0  0  0  0
   38.7992   -2.5464   17.7377 C   0  0  0  0  0  0
   38.3278   -3.8480   17.6175 C   0  0  0  0  0  0
   36.8978   -8.2262   19.2442 C   0  0  0  0  0  0
   37.3490   -6.9208   19.7005 C   0  0  0  0  0  0
   37.3802   -6.5735   21.0376 C   0  0  0  0  0  0
   38.3516   -6.9068   21.7280 O   0  0  0  0  0  0
   36.2965   -5.8316   21.6913 C   0  0  0  0  0  0
   36.3162   -5.6123   23.0540 C   0  0  0  0  0  0
   35.3046   -4.9308   23.7025 C   0  0  0  0  0  0
   34.2176   -4.4778   22.9569 C   0  0  0  0  0  0
   34.1911   -4.6849   21.5893 C   0  0  0  0  0  0
   35.2320   -5.3476   20.9608 C   0  0  0  0  0  0
   33.1102   -3.8006   23.3747 O   0  0  0  0  0  0
   33.2938   -2.8789   24.4385 C   0  0  0  0  0  0
   33.5205   -3.6124   25.7335 C   0  0  0  0  0  0
   33.8314   -3.0780   27.0454 N   0  0  0  0  0  0
   32.6664   -2.3145   27.5366 C   0  0  0  0  0  0
   32.8145   -1.8204   28.9897 C   0  0  0  0  0  0
   34.0184   -0.8647   29.0118 C   0  0  0  0  0  0
   35.2305   -1.7813   28.6608 C   0  0  0  0  0  0
   35.0373   -2.2421   27.2056 C   0  0  0  0  0  0
   35.4319  -12.4579   18.0522 H   0  0  0  0  0  0
   39.6864   -0.1960   18.5154 H   0  0  0  0  0  0
  1  2  2  0  0  0
  1 16  1  0  0  0
  2  3  1  0  0  0
  3  4  1  0  0  0
  3  5  2  0  0  0
  4 35  1  0  0  0
  5  6  1  0  0  0
  6  7  1  0  0  0
  6 16  2  0  0  0
  7  8  1  0  0  0
  8  9  1  0  0  0
  8 17  2  0  0  0
  9 10  2  0  0  0
  9 15  1  0  0  0
 10 11  1  0  0  0
 11 12  2  0  0  0
 12 13  1  0  0  0
 12 14  1  0  0  0
 13 36  1  0  0  0
 14 15  2  0  0  0
 16 17  1  0  0  0
 17 18  1  0  0  0
 18 19  2  0  0  0
 18 20  1  0  0  0
 20 21  2  0  0  0
 20 25  1  0  0  0
 21 22  1  0  0  0
 22 23  2  0  0  0
 23 24  1  0  0  0
 23 26  1  0  0  0
 24 25  2  0  0  0
 26 27  1  0  0  0
 27 28  1  0  0  0
 28 29  1  0  0  0
 29 30  1  0  0  0
 29 34  1  0  0  0
 30 31  1  0  0  0
 31 32  1  0  0  0
 32 33  1  0  0  0
 33 34  1  0  0  0
M  END
>  <CHROM.0>
93.06175706,61.08983799,97.54102309

>  <CHROM.1>
0.22030145,-173.44324259,-179.35223339,-96.21174796,174.12456545,34.38856660
-72.21265533,175.81380545,66.92312281,36.17260512,-5.18766085,21.54988545
1.05406867,-0.91231702,-2.53697168

>  <FORMUL>
      RAL    C28 H27 N1 O4 S1

>  <HET>
 RAL  A 600      34

>  <HETNAM>
     RAL RALOXIFENE

>  <Name>
RAL.pdb

>  <RI>
0

>  <Rbt.Current_Directory>
/home/malgorzata/Desktop/rDOCK_IFD/test6/IFD

>  <Rbt.Executable>
rbdock ($Id: //depot/dev/client3/rdock/2013.1/src/exe/rbdock.cxx#4 $)

>  <Rbt.Library>
libRbt.so (2013.1, Build901 2013/11/27)

>  <Rbt.Parameter_File>
/home/malgorzata/Desktop/rDock_2013.1_src/data/scripts/hard_docking.prm

>  <Rbt.Receptor>
cavity.prm

>  <SCORE>
-4.1815

>  <SCORE.INTER>
-4.69267

>  <SCORE.INTER.CONST>
1

>  <SCORE.INTER.POLAR>
0

>  <SCORE.INTER.REPUL>
0

>  <SCORE.INTER.ROT>
7

>  <SCORE.INTER.VDW>
-17.0927

>  <SCORE.INTER.norm>
-0.13802

>  <SCORE.INTRA>
-1.00798

>  <SCORE.INTRA.DIHEDRAL>
-4.12565

>  <SCORE.INTRA.DIHEDRAL.0>
18.358

>  <SCORE.INTRA.POLAR>
0

>  <SCORE.INTRA.POLAR.0>
0

>  <SCORE.INTRA.REPUL>
0

>  <SCORE.INTRA.REPUL.0>
0

>  <SCORE.INTRA.VDW>
1.05484

>  <SCORE.INTRA.VDW.0>
-1.94569

>  <SCORE.INTRA.norm>
-0.0296465

>  <SCORE.RESTR>
1.77735

>  <SCORE.RESTR.CAVITY>
1.77735

>  <SCORE.RESTR.norm>
0.0522751

>  <SCORE.SYSTEM>
-0.258203

>  <SCORE.SYSTEM.CONST>
0

>  <SCORE.SYSTEM.DIHEDRAL>
0.813929

>  <SCORE.SYSTEM.VDW>
-0.665168

>  <SCORE.SYSTEM.norm>
-0.00759421

>  <SCORE.heavy>
34

>  <SCORE.norm>
-0.122985

$$$$
RAL.pdb
  rDOCK(R)          3D
libRbt.so/2013.1/901 2013/11/27
 36 40  0  0  0  0  0  0  0  0999 V2000
   34.5633   -9.4462   17.9317 C   0  0  0  0  0  0
   35.1511  -10.5149   18.5578 C   0  0  0  0  0  0
   36.5011  -10.5977   18.7559 C   0  0  0  0  0  0
   36.9608  -11.7061   19.4224 O   0  0  0  0  0  0
   37.3222   -9.5500   18.3236 C   0  0  0  0  0  0
   36.7260   -8.4659   17.7280 C   0  0  0  0  0  0
   37.4161   -7.1134   17.0755 S   0  0  0  0  0  0
   35.9997   -6.3378   16.5838 C   0  0  0  0  0  0
   35.9809   -5.0566   15.8223 C   0  0  0  0  0  0
   37.0687   -4.2312   16.0304 C   0  0  0  0  0  0
   37.1595   -3.0641   15.2893 C   0  0  0  0  0  0
   36.1749   -2.7018   14.3913 C   0  0  0  0  0  0
   36.3558   -1.5098   13.6875 O   0  0  0  0  0  0
   35.1133   -3.5492   14.1514 C   0  0  0  0  0  0
   35.0393   -4.7256   14.8872 C   0  0  0  0  0  0
   35.3182   -8.4139   17.5193 C   0  0  0  0  0  0
   34.9094   -7.1976   16.8345 C   0  0  0  0  0  0
   33.5941   -6.9454   16.4942 C   0  0  0  0  0  0
   32.9247   -7.8376   15.9584 O   0  0  0  0  0  0
   32.9478   -5.6490   16.7267 C   0  0  0  0  0  0
   33.5009   -4.7335   17.5993 C   0  0  0  0  0  0
   32.9101   -3.5106   17.8518 C   0  0  0  0  0  0
   31.7023   -3.2085   17.2254 C   0  0  0  0  0  0
   31.1428   -4.1151   16.3428 C   0  0  0  0  0  0
   31.7705   -5.3228   16.0873 C   0  0  0  0  0  0
   30.9377   -2.0840   17.3278 O   0  0  0  0  0  0
   31.0410   -1.3548   18.5413 C   0  0  0  0  0  0
   30.4540   -2.1465   19.6794 C   0  0  0  0  0  0
   30.4675   -1.8543   21.0999 N   0  0  0  0  0  0
   29.7489   -0.5850   21.3316 C   0  0  0  0  0  0
   29.5619   -0.2395   22.8228 C   0  0  0  0  0  0
   30.9691   -0.0730   23.4185 C   0  0  0  0  0  0
   31.5961   -1.4963   23.3015 C   0  0  0  0  0  0
   31.7650   -1.7896   21.8005 C   0  0  0  0  0  0
   36.3618  -12.3771   19.6845 H   0  0  0  0  0  0
   37.1204   -0.9891   13.8366 H   0  0  0  0  0  0
  1  2  2  0  0  0
  1 16  1  0  0  0
  2  3  1  0  0  0
  3  4  1  0  0  0
  3  5  2  0  0  0
  4 35  1  0  0  0
  5  6  1  0  0  0
  6  7  1  0  0  0
  6 16  2  0  0  0
  7  8  1  0  0  0
  8  9  1  0  0  0
  8 17  2  0  0  0
  9 10  2  0  0  0
  9 15  1  0  0  0
 10 11  1  0  0  0
 11 12  2  0  0  0
 12 13  1  0  0  0
 12 14  1  0  0  0
 13 36  1  0  0  0
 14 15  2  0  0  0
 16 17  1  0  0  0
 17 18  1  0  0  0
 18 19  2  0  0  0
 18 20  1  0  0  0
 20 21  2  0  0  0
 20 25  1  0  0  0
 21 22  1  0  0  0
 22 23  2  0  0  0
 23 24  1  0  0  0
 23 26  1  0  0  0
 24 25  2  0  0  0
 26 27  1  0  0  0
 27 28  1  0  0  0
 28 29  1  0  0  0
 29 30  1  0  0  0
 29 34  1  0  0  0
 30 31  1  0  0  0
 31 32  1  0  0  0
 32 33  1  0  0  0
 33 34  1  0  0  0
M  END
>  <CHROM.0>
-132.65426677,-59.17856808,-160.49496705

>  <CHROM.1>
2.61457179,-27.66303028,-0.27926638,134.33025542,-16.88329608,-27.08672394
-68.03502153,173.02817463,61.81903392,33.93634237,-4.93718840,17.85868456
0.34717188,-0.91920028,2.47322138

>  <FORMUL>
      RAL    C28 H27 N1 O4 S1

>  <HET>
 RAL  A 600      34

>  <HETNAM>
     RAL RALOXIFENE

>  <Name>
RAL.pdb

>  <RI>
0

>  <Rbt.Current_Directory>
/home/malgorzata/Desktop/rDOCK_IFD/test6/IFD

>  <Rbt.Executable>
rbdock ($Id: //depot/dev/client3/rdock/2013.1/src/exe/rbdock.cxx#4 $)

>  <Rbt.Library>
libRbt.so (2013.1, Build901 2013/11/27)

>  <Rbt.Parameter_File>
/home/malgorzata/Desktop/rDock_2013.1_src/data/scripts/hard_docking.prm

>  <Rbt.Receptor>
cavity.prm

>  <SCORE>
-0.404145

>  <SCORE.INTER>
0.794449

>  <SCORE.INTER.CONST>
1

>  <SCORE.INTER.POLAR>
0

>  <SCORE.INTER.REPUL>
0

>  <SCORE.INTER.ROT>
7

>  <SCORE.INTER.VDW>
-11.6056

>  <SCORE.INTER.norm>
0.0233662

>  <SCORE.INTRA>
-3.1853

>  <SCORE.INTRA.DIHEDRAL>
-7.65408

>  <SCORE.INTRA.DIHEDRAL.0>
18.358

>  <SCORE.INTRA.POLAR>
0

>  <SCORE.INTRA.POLAR.0>
0

>  <SCORE.INTRA.REPUL>
0

>  <SCORE.INTRA.REPUL.0>
0

>  <SCORE.INTRA.VDW>
0.641741

>  <SCORE.INTRA.VDW.0>
-1.94569

>  <SCORE.INTRA.norm>
-0.0936852

>  <SCORE.RESTR>
1.87325

>  <SCORE.RESTR.CAVITY>
1.87325

>  <SCORE.RESTR.norm>
0.0550957

>  <SCORE.SYSTEM>
0.113449

>  <SCORE.SYSTEM.CONST>
0

>  <SCORE.SYSTEM.DIHEDRAL>
0.811871

>  <SCORE.SYSTEM.VDW>
-0.292487

>  <SCORE.SYSTEM.norm>
0.00333673

>  <SCORE.heavy>
34

>  <SCORE.norm>
-0.0118866

$$$$
RAL.pdb
  rDOCK(R)          3D
libRbt.so/2013.1/901 2013/11/27
 36 40  0  0  0  0  0  0  0  0999 V2000
   31.1283   -2.2238   17.2163 C   0  0  0  0  0  0
   29.8090   -2.0352   17.5383 C   0  0  0  0  0  0
   29.3829   -1.8838   18.8283 C   0  0  0  0  0  0
   28.0396   -1.6720   19.0143 O   0  0  0  0  0  0
   30.3217   -1.9024   19.8662 C   0  0  0  0  0  0
   31.6457   -2.0570   19.5367 C   0  0  0  0  0  0
   32.9681   -2.1681   20.5217 S   0  0  0  0  0  0
   34.1438   -2.3379   19.3224 C   0  0  0  0  0  0
   35.5873   -2.5754   19.6083 C   0  0  0  0  0  0
   36.4379   -2.3974   18.5346 C   0  0  0  0  0  0
   37.8014   -2.5165   18.7495 C   0  0  0  0  0  0
   38.3097   -2.8446   19.9910 C   0  0  0  0  0  0
   39.6974   -2.9381   20.1116 O   0  0  0  0  0  0
   37.4623   -2.9764   21.0713 C   0  0  0  0  0  0
   36.0975   -2.8385   20.8496 C   0  0  0  0  0  0
   32.0595   -2.2294   18.1850 C   0  0  0  0  0  0
   33.4971   -2.4187   18.0710 C   0  0  0  0  0  0
   34.1214   -2.6401   16.8582 C   0  0  0  0  0  0
   34.5872   -1.6799   16.2319 O   0  0  0  0  0  0
   34.2475   -3.9743   16.2615 C   0  0  0  0  0  0
   35.0278   -4.1727   15.1402 C   0  0  0  0  0  0
   35.1560   -5.4128   14.5451 C   0  0  0  0  0  0
   34.4498   -6.4885   15.0807 C   0  0  0  0  0  0
   33.6711   -6.3031   16.2090 C   0  0  0  0  0  0
   33.5820   -5.0545   16.8013 C   0  0  0  0  0  0
   34.4112   -7.7858   14.6626 O   0  0  0  0  0  0
   35.6368   -8.5011   14.6992 C   0  0  0  0  0  0
   36.0845   -8.7001   16.1228 C   0  0  0  0  0  0
   36.2627   -7.7148   17.1720 N   0  0  0  0  0  0
   37.3263   -6.7740   16.7658 C   0  0  0  0  0  0
   37.5080   -5.5860   17.7319 C   0  0  0  0  0  0
   37.9267   -6.1777   19.0875 C   0  0  0  0  0  0
   36.6845   -7.0093   19.5327 C   0  0  0  0  0  0
   36.5507   -8.1797   18.5429 C   0  0  0  0  0  0
   27.4557   -1.6960   18.2819 H   0  0  0  0  0  0
   40.1231   -2.6195   20.8832 H   0  0  0  0  0  0
  1  2  2  0  0  0
  1 16  1  0  0  0
  2  3  1  0  0  0
  3  4  1  0  0  0
  3  5  2  0  0  0
  4 35  1  0  0  0
  5  6  1  0  0  0
  6  7  1  0  0  0
  6 16  2  0  0  0
  7  8  1  0  0  0
  8  9  1  0  0  0
  8 17  2  0  0  0
  9 10  2  0  0  0
  9 15  1  0  0  0
 10 11  1  0  0  0
 11 12  2  0  0  0
 12 13  1  0  0  0
 12 14  1  0  0  0
 13 36  1  0  0  0
 14 15  2  0  0  0
 16 17  1  0  0  0
 17 18  1  0  0  0
 18 19  2  0  0  0
 18 20  1  0  0  0
 20 21  2  0  0  0
 20 25  1  0  0  0
 21 22  1  0  0  0
 22 23  2  0  0  0
 23 24  1  0  0  0
 23 26  1  0  0  0
 24 25  2  0  0  0
 26 27  1  0  0  0
 27 28  1  0  0  0
 28 29  1  0  0  0
 29 30  1  0  0  0
 29 34  1  0  0  0
 30 31  1  0  0  0
 31 32  1  0  0  0
 32 33  1  0  0  0
 33 34  1  0  0  0
M  END
>  <CHROM.0>
-136.79138635,61.79198247,-95.94801870

>  <CHROM.1>
4.21909410,-166.41050572,140.90030110,-85.76110034,-171.46106138,62.47828486
66.97892035,-53.09374363,-63.00553057,34.60878798,-4.15499450,17.98546781
2.49617259,-0.31177531,0.73050275

>  <FORMUL>
      RAL    C28 H27 N1 O4 S1

>  <HET>
 RAL  A 600      34

>  <HETNAM>
     RAL RALOXIFENE

>  <Name>
RAL.pdb

>  <RI>
0

>  <Rbt.Current_Directory>
/home/malgorzata/Desktop/rDOCK_IFD/test6/IFD

>  <Rbt.Executable>
rbdock ($Id: //depot/dev/client3/rdock/2013.1/src/exe/rbdock.cxx#4 $)

>  <Rbt.Library>
libRbt.so (2013.1, Build901 2013/11/27)

>  <Rbt.Parameter_File>
/home/malgorzata/Desktop/rDock_2013.1_src/data/scripts/hard_docking.prm

>  <Rbt.Receptor>
cavity.prm

>  <SCORE>
-8.67171

>  <SCORE.INTER>
-5.45576

>  <SCORE.INTER.CONST>
1

>  <SCORE.INTER.POLAR>
-0.536192

>  <SCORE.INTER.REPUL>
0

>  <SCORE.INTER.ROT>
7

>  <SCORE.INTER.VDW>
-16.0327

>  <SCORE.INTER.norm>
-0.160464

>  <SCORE.INTRA>
-3.38778

>  <SCORE.INTRA.DIHEDRAL>
0.409731

>  <SCORE.INTRA.DIHEDRAL.0>
18.358

>  <SCORE.INTRA.POLAR>
0

>  <SCORE.INTRA.POLAR.0>
0

>  <SCORE.INTRA.REPUL>
0

>  <SCORE.INTRA.REPUL.0>
0

>  <SCORE.INTRA.VDW>
-3.59264

>  <SCORE.INTRA.VDW.0>
-1.94569

>  <SCORE.INTRA.norm>
-0.0996405

>  <SCORE.RESTR>
0.0376951

>  <SCORE.RESTR.CAVITY>
0.0376951

>  <SCORE.RESTR.norm>
0.00110868

>  <SCORE.SYSTEM>
0.134131

>  <SCORE.SYSTEM.CONST>
0

>  <SCORE.SYSTEM.DIHEDRAL>
0.817841

>  <SCORE.SYSTEM.VDW>
-0.274789

>  <SCORE.SYSTEM.norm>
0.00394504

>  <SCORE.heavy>
34

>  <SCORE.norm>
-0.25505

$$$$
RAL.pdb
  rDOCK(R)          3D
libRbt.so/2013.1/901 2013/11/27
 36 40  0  0  0  0  0  0  0  0999 V2000
   35.1942   -2.0384   15.8565 C   0  0  0  0  0  0
   36.0840   -2.5356   14.9395 C   0  0  0  0  0  0
   35.8569   -3.6940   14.2500 C   0  0  0  0  0  0
   36.8125   -4.0677   13.3384 O   0  0  0  0  0  0
   34.6668   -4.3979   14.4669 C   0  0  0  0  0  0
   33.7629   -3.8784   15.3606 C   0  0  0  0  0  0
   32.3123   -4.4897   15.8639 S   0  0  0  0  0  0
   31.8888   -3.2498   16.9283 C   0  0  0  0  0  0
   30.6694   -3.2770   17.7851 C   0  0  0  0  0  0
   30.0559   -2.0543   17.9764 C   0  0  0  0  0  0
   28.8689   -2.0190   18.6900 C   0  0  0  0  0  0
   28.3222   -3.1631   19.2371 C   0  0  0  0  0  0
   27.1213   -3.0292   19.9362 O   0  0  0  0  0  0
   28.9114   -4.3887   19.0059 C   0  0  0  0  0  0
   30.0927   -4.4164   18.2748 C   0  0  0  0  0  0
   34.0334   -2.6780   16.0775 C   0  0  0  0  0  0
   32.9617   -2.3363   16.9997 C   0  0  0  0  0  0
   33.0206   -1.2311   17.8271 C   0  0  0  0  0  0
   33.4586   -0.1629   17.3815 O   0  0  0  0  0  0
   32.5974   -1.2663   19.2313 C   0  0  0  0  0  0
   32.2284   -0.1074   19.8842 C   0  0  0  0  0  0
   31.8393   -0.1038   21.2097 C   0  0  0  0  0  0
   31.8493   -1.3067   21.9136 C   0  0  0  0  0  0
   32.2094   -2.4757   21.2672 C   0  0  0  0  0  0
   32.5692   -2.4546   19.9301 C   0  0  0  0  0  0
   31.5215   -1.5442   23.2158 O   0  0  0  0  0  0
   31.9321   -0.5685   24.1616 C   0  0  0  0  0  0
   31.5277   -0.9836   25.5510 C   0  0  0  0  0  0
   31.7062   -0.2775   26.8052 N   0  0  0  0  0  0
   30.8717   -0.9237   27.8383 C   0  0  0  0  0  0
   31.0885   -0.3581   29.2563 C   0  0  0  0  0  0
   30.6778    1.1225   29.2100 C   0  0  0  0  0  0
   31.7154    1.7686   28.2411 C   0  0  0  0  0  0
   31.4545    1.1763   26.8452 C   0  0  0  0  0  0
   37.5916   -3.5565   13.2400 H   0  0  0  0  0  0
   26.6296   -3.7909   20.1730 H   0  0  0  0  0  0
  1  2  2  0  0  0
  1 16  1  0  0  0
  2  3  1  0  0  0
  3  4  1  0  0  0
  3  5  2  0  0  0
  4 35  1  0  0  0
  5  6  1  0  0  0
  6  7  1  0  0  0
  6 16  2  0  0  0
  7  8  1  0  0  0
  8  9  1  0  0  0
  8 17  2  0  0  0
  9 10  2  0  0  0
  9 15  1  0  0  0
 10 11  1  0  0  0
 11 12  2  0  0  0
 12 13  1  0  0  0
 12 14  1  0  0  0
 13 36  1  0  0  0
 14 15  2  0  0  0
 16 17  1  0  0  0
 17 18  1  0  0  0
 18 19  2  0  0  0
 18 20  1  0  0  0
 20 21  2  0  0  0
 20 25  1  0  0  0
 21 22  1  0  0  0
 22 23  2  0  0  0
 23 24  1  0  0  0
 23 26  1  0  0  0
 24 25  2  0  0  0
 26 27  1  0  0  0
 27 28  1  0  0  0
 28 29  1  0  0  0
 29 30  1  0  0  0
 29 34  1  0  0  0
 30 31  1  0  0  0
 31 32  1  0  0  0
 32 33  1  0  0  0
 33 34  1  0  0  0
M  END
>  <CHROM.0>
-141.38731189,58.47912254,-135.66810444

>  <CHROM.1>
2.61582841,-144.44161633,167.70051589,-137.74541581,-157.30539368,-39.35308170
-178.71432854,-177.97945749,166.65351967,32.04929214,-1.99213478,20.08672786
-1.33692944,0.29777567,1.20925579

>  <FORMUL>
      RAL    C28 H27 N1 O4 S1

>  <HET>
 RAL  A 600      34

>  <HETNAM>
     RAL RALOXIFENE

>  <Name>
RAL.pdb

>  <RI>
0

>  <Rbt.Current_Directory>
/home/malgorzata/Desktop/rDOCK_IFD/test6/IFD

>  <Rbt.Executable>
rbdock ($Id: //depot/dev/client3/rdock/2013.1/src/exe/rbdock.cxx#4 $)

>  <Rbt.Library>
libRbt.so (2013.1, Build901 2013/11/27)

>  <Rbt.Parameter_File>
/home/malgorzata/Desktop/rDock_2013.1_src/data/scripts/hard_docking.prm

>  <Rbt.Receptor>
cavity.prm

>  <SCORE>
-10.1191

>  <SCORE.INTER>
-6.987

>  <SCORE.INTER.CONST>
1

>  <SCORE.INTER.POLAR>
0

>  <SCORE.INTER.REPUL>
0

>  <SCORE.INTER.ROT>
7

>  <SCORE.INTER.VDW>
-19.387

>  <SCORE.INTER.norm>
-0.2055

>  <SCORE.INTRA>
-2.68689

>  <SCORE.INTRA.DIHEDRAL>
-3.84536

>  <SCORE.INTRA.DIHEDRAL.0>
18.358

>  <SCORE.INTRA.POLAR>
0

>  <SCORE.INTRA.POLAR.0>
0

>  <SCORE.INTRA.REPUL>
0

>  <SCORE.INTRA.REPUL.0>
0

>  <SCORE.INTRA.VDW>
-0.764208

>  <SCORE.INTRA.VDW.0>
-1.94569

>  <SCORE.INTRA.norm>
-0.0790262

>  <SCORE.RESTR>
1.10384

>  <SCORE.RESTR.CAVITY>
1.10384

>  <SCORE.RESTR.norm>
0.0324658

>  <SCORE.SYSTEM>
-1.54909

>  <SCORE.SYSTEM.CONST>
0

>  <SCORE.SYSTEM.DIHEDRAL>
0.818988

>  <SCORE.SYSTEM.VDW>
-1.95858

>  <SCORE.SYSTEM.norm>
-0.0455615

>  <SCORE.heavy>
34

>  <SCORE.norm>
-0.297622

$$$$
