RAL.pdb
  rDOCK(R)          3D
libRbt.so/2013.1/901 2013/11/27
 36 40  0  0  0  0  0  0  0  0999 V2000
   38.3044   -1.0315   18.7811 C   0  0  0  0  0  0
   38.2815    0.2144   19.3531 C   0  0  0  0  0  0
   37.1760    1.0177   19.3180 C   0  0  0  0  0  0
   37.2730    2.2301   19.9540 O   0  0  0  0  0  0
   36.0125    0.5544   18.6932 C   0  0  0  0  0  0
   36.0287   -0.7074   18.1518 C   0  0  0  0  0  0
   34.8488   -1.5082   17.3165 S   0  0  0  0  0  0
   35.6896   -2.9449   17.0367 C   0  0  0  0  0  0
   35.1524   -4.0711   16.2212 C   0  0  0  0  0  0
   33.9136   -4.5422   16.6102 C   0  0  0  0  0  0
   33.3155   -5.5294   15.8439 C   0  0  0  0  0  0
   33.9474   -6.0673   14.7401 C   0  0  0  0  0  0
   33.2644   -7.0548   14.0279 O   0  0  0  0  0  0
   35.1632   -5.5636   14.3267 C   0  0  0  0  0  0
   35.7477   -4.5619   15.0919 C   0  0  0  0  0  0
   37.2003   -1.5161   18.1882 C   0  0  0  0  0  0
   37.0066   -2.7932   17.5194 C   0  0  0  0  0  0
   38.0177   -3.7275   17.3994 C   0  0  0  0  0  0
   39.0533   -3.4256   16.7931 O   0  0  0  0  0  0
   37.9160   -5.0833   17.9503 C   0  0  0  0  0  0
   37.5046   -6.1359   17.1577 C   0  0  0  0  0  0
   37.3840   -7.4214   17.6490 C   0  0  0  0  0  0
   37.6598   -7.6520   18.9956 C   0  0  0  0  0  0
   38.0807   -6.6062   19.7976 C   0  0  0  0  0  0
   38.2191   -5.3324   19.2723 C   0  0  0  0  0  0
   37.5999   -8.8190   19.6984 O   0  0  0  0  0  0
   37.2202   -9.9782   18.9723 C   0  0  0  0  0  0
   35.7242  -10.0289   18.8121 C   0  0  0  0  0  0
   34.6965  -10.0989   19.8331 N   0  0  0  0  0  0
   33.3872  -10.2928   19.1780 C   0  0  0  0  0  0
   32.2276  -10.5346   20.1653 C   0  0  0  0  0  0
   32.1125   -9.2698   21.0314 C   0  0  0  0  0  0
   33.4555   -9.2352   21.8237 C   0  0  0  0  0  0
   34.5750   -8.9881   20.7974 C   0  0  0  0  0  0
   38.0367    2.4359   20.4564 H   0  0  0  0  0  0
   33.6585   -7.4449   13.2725 H   0  0  0  0  0  0
  1  2  2  0  0  0
  1 16  1  0  0  0
  2  3  1  0  0  0
  3  4  1  0  0  0
  3  5  2  0  0  0
  4 35  1  0  0  0
  5  6  1  0  0  0
  6  7  1  0  0  0
  6 16  2  0  0  0
  7  8  1  0  0  0
  8  9  1  0  0  0
  8 17  2  0  0  0
  9 10  2  0  0  0
  9 15  1  0  0  0
 10 11  1  0  0  0
 11 12  2  0  0  0
 12 13  1  0  0  0
 12 14  1  0  0  0
 13 36  1  0  0  0
 14 15  2  0  0  0
 16 17  1  0  0  0
 17 18  1  0  0  0
 18 19  2  0  0  0
 18 20  1  0  0  0
 20 21  2  0  0  0
 20 25  1  0  0  0
 21 22  1  0  0  0
 22 23  2  0  0  0
 23 24  1  0  0  0
 23 26  1  0  0  0
 24 25  2  0  0  0
 26 27  1  0  0  0
 27 28  1  0  0  0
 28 29  1  0  0  0
 29 30  1  0  0  0
 29 34  1  0  0  0
 30 31  1  0  0  0
 31 32  1  0  0  0
 32 33  1  0  0  0
 33 34  1  0  0  0
M  END
>  <CHROM.0>
-131.80709592,-60.18089710,151.42320678

>  <CHROM.1>
-6.15757942,-54.26083550,179.97818096,120.04759609,95.65331692,0.81277708
-80.53807296,-61.19756588,-173.20722169,35.90668709,-5.12595224,18.12660813
-1.12295551,0.92525289,2.65377563

>  <FORMUL>
      RAL    C28 H27 N1 O4 S1

>  <HET>
 RAL  A 600      34

>  <HETNAM>
     RAL RALOXIFENE

>  <Name>
RAL.pdb

>  <RI>
0

>  <Rbt.Current_Directory>
/home/malgorzata/Desktop/rDOCK_IFD/Wyniki/6a_estrogen_receptor/IFD

>  <Rbt.Executable>
rbdock ($Id: //depot/dev/client3/rdock/2013.1/src/exe/rbdock.cxx#4 $)

>  <Rbt.Library>
libRbt.so (2013.1, Build901 2013/11/27)

>  <Rbt.Parameter_File>
/home/malgorzata/Desktop/rDock_2013.1_src/data/scripts/hard_docking.prm

>  <Rbt.Receptor>
cavity.prm

>  <SCORE>
-6.60097

>  <SCORE.INTER>
-12.7174

>  <SCORE.INTER.CONST>
1

>  <SCORE.INTER.POLAR>
-1.02665

>  <SCORE.INTER.REPUL>
0

>  <SCORE.INTER.ROT>
7

>  <SCORE.INTER.VDW>
-21.6268

>  <SCORE.INTER.norm>
-0.37404

>  <SCORE.INTRA>
4.69363

>  <SCORE.INTRA.DIHEDRAL>
12.7166

>  <SCORE.INTRA.DIHEDRAL.0>
18.358

>  <SCORE.INTRA.POLAR>
0

>  <SCORE.INTRA.POLAR.0>
0

>  <SCORE.INTRA.REPUL>
0

>  <SCORE.INTRA.REPUL.0>
0

>  <SCORE.INTRA.VDW>
-1.66468

>  <SCORE.INTRA.VDW.0>
-1.94569

>  <SCORE.INTRA.norm>
0.138048

>  <SCORE.RESTR>
1.76918

>  <SCORE.RESTR.CAVITY>
1.76918

>  <SCORE.RESTR.norm>
0.0520348

>  <SCORE.SYSTEM>
-0.34642

>  <SCORE.SYSTEM.CONST>
0

>  <SCORE.SYSTEM.DIHEDRAL>
0.795997

>  <SCORE.SYSTEM.VDW>
-0.744418

>  <SCORE.SYSTEM.norm>
-0.0101888

>  <SCORE.heavy>
34

>  <SCORE.norm>
-0.194146

$$$$
RAL.pdb
  rDOCK(R)          3D
libRbt.so/2013.1/901 2013/11/27
 36 40  0  0  0  0  0  0  0  0999 V2000
   30.7226   -2.2639   19.1905 C   0  0  0  0  0  0
   29.5415   -2.0573   19.8555 C   0  0  0  0  0  0
   28.4773   -2.9077   19.7424 C   0  0  0  0  0  0
   27.3626   -2.6043   20.4836 O   0  0  0  0  0  0
   28.5922   -4.0447   18.9344 C   0  0  0  0  0  0
   29.7883   -4.2662   18.2974 C   0  0  0  0  0  0
   30.2147   -5.4726   17.2515 S   0  0  0  0  0  0
   31.8064   -4.9879   16.9665 C   0  0  0  0  0  0
   32.7150   -5.6641   15.9974 C   0  0  0  0  0  0
   32.2596   -6.8724   15.5068 C   0  0  0  0  0  0
   33.0125   -7.5136   14.5365 C   0  0  0  0  0  0
   34.2104   -6.9905   14.0908 C   0  0  0  0  0  0
   34.8966   -7.7061   13.1080 O   0  0  0  0  0  0
   34.6401   -5.7621   14.5479 C   0  0  0  0  0  0
   33.8699   -5.1184   15.5087 C   0  0  0  0  0  0
   30.8751   -3.3541   18.4201 C   0  0  0  0  0  0
   32.0254   -3.7614   17.6285 C   0  0  0  0  0  0
   33.1842   -3.0113   17.5652 C   0  0  0  0  0  0
   33.2390   -2.0440   16.7954 O   0  0  0  0  0  0
   34.3743   -3.3186   18.3661 C   0  0  0  0  0  0
   34.4576   -4.4979   19.0787 C   0  0  0  0  0  0
   35.5572   -4.8109   19.8540 C   0  0  0  0  0  0
   36.6002   -3.8903   19.9393 C   0  0  0  0  0  0
   36.5311   -2.7086   19.2231 C   0  0  0  0  0  0
   35.4286   -2.4324   18.4319 C   0  0  0  0  0  0
   37.7658   -3.9736   20.6419 O   0  0  0  0  0  0
   38.4590   -5.2106   20.5767 C   0  0  0  0  0  0
   39.2831   -5.2833   19.3190 C   0  0  0  0  0  0
   38.8847   -5.0274   17.9481 N   0  0  0  0  0  0
   39.0358   -3.5848   17.6699 C   0  0  0  0  0  0
   38.7870   -3.2063   16.1959 C   0  0  0  0  0  0
   37.3266   -3.5721   15.8853 C   0  0  0  0  0  0
   37.2921   -5.1252   16.0239 C   0  0  0  0  0  0
   37.5404   -5.4484   17.5076 C   0  0  0  0  0  0
   26.6641   -3.2248   20.5548 H   0  0  0  0  0  0
   35.4063   -7.2508   12.4670 H   0  0  0  0  0  0
  1  2  2  0  0  0
  1 16  1  0  0  0
  2  3  1  0  0  0
  3  4  1  0  0  0
  3  5  2  0  0  0
  4 35  1  0  0  0
  5  6  1  0  0  0
  6  7  1  0  0  0
  6 16  2  0  0  0
  7  8  1  0  0  0
  8  9  1  0  0  0
  8 17  2  0  0  0
  9 10  2  0  0  0
  9 15  1  0  0  0
 10 11  1  0  0  0
 11 12  2  0  0  0
 12 13  1  0  0  0
 12 14  1  0  0  0
 13 36  1  0  0  0
 14 15  2  0  0  0
 16 17  1  0  0  0
 17 18  1  0  0  0
 18 19  2  0  0  0
 18 20  1  0  0  0
 20 21  2  0  0  0
 20 25  1  0  0  0
 21 22  1  0  0  0
 22 23  2  0  0  0
 23 24  1  0  0  0
 23 26  1  0  0  0
 24 25  2  0  0  0
 26 27  1  0  0  0
 27 28  1  0  0  0
 28 29  1  0  0  0
 29 30  1  0  0  0
 29 34  1  0  0  0
 30 31  1  0  0  0
 31 32  1  0  0  0
 32 33  1  0  0  0
 33 34  1  0  0  0
M  END
>  <CHROM.0>
-93.79034606,-60.18089710,-73.34574888

>  <CHROM.1>
-169.75318483,-11.13413448,147.24817938,98.92439325,9.72358697,44.50197809
82.11417510,-50.38412948,87.10490041,34.00114651,-4.41483456,17.65774947
-2.99913826,0.03658454,-2.14603041

>  <FORMUL>
      RAL    C28 H27 N1 O4 S1

>  <HET>
 RAL  A 600      34

>  <HETNAM>
     RAL RALOXIFENE

>  <Name>
RAL.pdb

>  <RI>
0

>  <Rbt.Current_Directory>
/home/malgorzata/Desktop/rDOCK_IFD/Wyniki/6a_estrogen_receptor/IFD

>  <Rbt.Executable>
rbdock ($Id: //depot/dev/client3/rdock/2013.1/src/exe/rbdock.cxx#4 $)

>  <Rbt.Library>
libRbt.so (2013.1, Build901 2013/11/27)

>  <Rbt.Parameter_File>
/home/malgorzata/Desktop/rDock_2013.1_src/data/scripts/hard_docking.prm

>  <Rbt.Receptor>
cavity.prm

>  <SCORE>
-17.1749

>  <SCORE.INTER>
-15.1028

>  <SCORE.INTER.CONST>
1

>  <SCORE.INTER.POLAR>
-1.11569

>  <SCORE.INTER.REPUL>
0

>  <SCORE.INTER.ROT>
7

>  <SCORE.INTER.VDW>
-23.7094

>  <SCORE.INTER.norm>
-0.444199

>  <SCORE.INTRA>
-2.34173

>  <SCORE.INTRA.DIHEDRAL>
0.728663

>  <SCORE.INTRA.DIHEDRAL.0>
18.358

>  <SCORE.INTRA.POLAR>
0

>  <SCORE.INTRA.POLAR.0>
0

>  <SCORE.INTRA.REPUL>
0

>  <SCORE.INTRA.REPUL.0>
0

>  <SCORE.INTRA.VDW>
-2.70606

>  <SCORE.INTRA.VDW.0>
-1.94569

>  <SCORE.INTRA.norm>
-0.0688745

>  <SCORE.RESTR>
0.650604

>  <SCORE.RESTR.CAVITY>
0.650604

>  <SCORE.RESTR.norm>
0.0191354

>  <SCORE.SYSTEM>
-0.381059

>  <SCORE.SYSTEM.CONST>
0

>  <SCORE.SYSTEM.DIHEDRAL>
0.787595

>  <SCORE.SYSTEM.VDW>
-0.774857

>  <SCORE.SYSTEM.norm>
-0.0112076

>  <SCORE.heavy>
34

>  <SCORE.norm>
-0.505146

$$$$
RAL.pdb
  rDOCK(R)          3D
libRbt.so/2013.1/901 2013/11/27
 36 40  0  0  0  0  0  0  0  0999 V2000
   37.1459   -6.7018   20.7004 C   0  0  0  0  0  0
   38.0479   -7.7002   20.9644 C   0  0  0  0  0  0
   39.3983   -7.4879   20.9641 C   0  0  0  0  0  0
   40.1927   -8.5637   21.2732 O   0  0  0  0  0  0
   39.8896   -6.2036   20.7035 C   0  0  0  0  0  0
   38.9818   -5.1992   20.4737 C   0  0  0  0  0  0
   39.2437   -3.6125   20.0932 S   0  0  0  0  0  0
   37.6311   -3.1238   19.9907 C   0  0  0  0  0  0
   37.2071   -1.7559   19.5772 C   0  0  0  0  0  0
   38.2369   -0.8786   19.2982 C   0  0  0  0  0  0
   37.9154    0.3830   18.8244 C   0  0  0  0  0  0
   36.6024    0.7817   18.6687 C   0  0  0  0  0  0
   36.3769    2.0703   18.1814 O   0  0  0  0  0  0
   35.5772   -0.1107   18.9037 C   0  0  0  0  0  0
   35.9099   -1.3794   19.3626 C   0  0  0  0  0  0
   37.5805   -5.4527   20.4636 C   0  0  0  0  0  0
   36.8090   -4.2583   20.1570 C   0  0  0  0  0  0
   35.4308   -4.2717   20.0581 C   0  0  0  0  0  0
   34.9040   -4.4670   18.9556 O   0  0  0  0  0  0
   34.5494   -4.0480   21.2093 C   0  0  0  0  0  0
   35.0640   -3.6216   22.4171 C   0  0  0  0  0  0
   34.2639   -3.4158   23.5243 C   0  0  0  0  0  0
   32.8986   -3.6764   23.4214 C   0  0  0  0  0  0
   32.3705   -4.0963   22.2136 C   0  0  0  0  0  0
   33.1918   -4.2685   21.1120 C   0  0  0  0  0  0
   31.9265   -3.5592   24.3705 O   0  0  0  0  0  0
   32.0889   -2.5163   25.3197 C   0  0  0  0  0  0
   30.9212   -2.4864   26.2695 C   0  0  0  0  0  0
   30.6122   -1.5241   27.3096 N   0  0  0  0  0  0
   30.0622   -0.3054   26.6823 C   0  0  0  0  0  0
   29.5519    0.7393   27.6952 C   0  0  0  0  0  0
   30.7659    1.1747   28.5317 C   0  0  0  0  0  0
   31.1751   -0.1198   29.2995 C   0  0  0  0  0  0
   31.6788   -1.1241   28.2482 C   0  0  0  0  0  0
   39.8079   -9.4079   21.4045 H   0  0  0  0  0  0
   37.0965    2.6581   18.0603 H   0  0  0  0  0  0
  1  2  2  0  0  0
  1 16  1  0  0  0
  2  3  1  0  0  0
  3  4  1  0  0  0
  3  5  2  0  0  0
  4 35  1  0  0  0
  5  6  1  0  0  0
  6  7  1  0  0  0
  6 16  2  0  0  0
  7  8  1  0  0  0
  8  9  1  0  0  0
  8 17  2  0  0  0
  9 10  2  0  0  0
  9 15  1  0  0  0
 10 11  1  0  0  0
 11 12  2  0  0  0
 12 13  1  0  0  0
 12 14  1  0  0  0
 13 36  1  0  0  0
 14 15  2  0  0  0
 16 17  1  0  0  0
 17 18  1  0  0  0
 18 19  2  0  0  0
 18 20  1  0  0  0
 20 21  2  0  0  0
 20 25  1  0  0  0
 21 22  1  0  0  0
 22 23  2  0  0  0
 23 24  1  0  0  0
 23 26  1  0  0  0
 24 25  2  0  0  0
 26 27  1  0  0  0
 27 28  1  0  0  0
 28 29  1  0  0  0
 29 30  1  0  0  0
 29 34  1  0  0  0
 30 31  1  0  0  0
 31 32  1  0  0  0
 32 33  1  0  0  0
 33 34  1  0  0  0
M  END
>  <CHROM.0>
-118.29384970,-60.18089710,144.93290888

>  <CHROM.1>
4.83523263,-1.15485480,-6.48753133,88.83037195,9.39176682,33.19608976,178.19328063
-173.87109662,76.93359277,35.21549646,-2.95256280,22.20380882,-0.00534992
-0.82659439,2.66620116

>  <FORMUL>
      RAL    C28 H27 N1 O4 S1

>  <HET>
 RAL  A 600      34

>  <HETNAM>
     RAL RALOXIFENE

>  <Name>
RAL.pdb

>  <RI>
0

>  <Rbt.Current_Directory>
/home/malgorzata/Desktop/rDOCK_IFD/Wyniki/6a_estrogen_receptor/IFD

>  <Rbt.Executable>
rbdock ($Id: //depot/dev/client3/rdock/2013.1/src/exe/rbdock.cxx#4 $)

>  <Rbt.Library>
libRbt.so (2013.1, Build901 2013/11/27)

>  <Rbt.Parameter_File>
/home/malgorzata/Desktop/rDock_2013.1_src/data/scripts/hard_docking.prm

>  <Rbt.Receptor>
cavity.prm

>  <SCORE>
-14.6725

>  <SCORE.INTER>
-13.2467

>  <SCORE.INTER.CONST>
1

>  <SCORE.INTER.POLAR>
0

>  <SCORE.INTER.REPUL>
0

>  <SCORE.INTER.ROT>
7

>  <SCORE.INTER.VDW>
-25.6467

>  <SCORE.INTER.norm>
-0.389609

>  <SCORE.INTRA>
-1.91365

>  <SCORE.INTRA.DIHEDRAL>
-4.40762

>  <SCORE.INTRA.DIHEDRAL.0>
18.358

>  <SCORE.INTRA.POLAR>
0

>  <SCORE.INTRA.POLAR.0>
0

>  <SCORE.INTRA.REPUL>
0

>  <SCORE.INTRA.REPUL.0>
0

>  <SCORE.INTRA.VDW>
0.290154

>  <SCORE.INTRA.VDW.0>
-1.94569

>  <SCORE.INTRA.norm>
-0.056284

>  <SCORE.RESTR>
0.829564

>  <SCORE.RESTR.CAVITY>
0.829564

>  <SCORE.RESTR.norm>
0.0243989

>  <SCORE.SYSTEM>
-0.341698

>  <SCORE.SYSTEM.CONST>
0

>  <SCORE.SYSTEM.DIHEDRAL>
0.790779

>  <SCORE.SYSTEM.VDW>
-0.737088

>  <SCORE.SYSTEM.norm>
-0.01005

>  <SCORE.heavy>
34

>  <SCORE.norm>
-0.431544

$$$$
RAL.pdb
  rDOCK(R)          3D
libRbt.so/2013.1/901 2013/11/27
 36 40  0  0  0  0  0  0  0  0999 V2000
   35.5375   -1.4424   16.7562 C   0  0  0  0  0  0
   35.8869   -0.1233   16.8896 C   0  0  0  0  0  0
   35.7027    0.5706   18.0529 C   0  0  0  0  0  0
   36.1223    1.8774   18.0656 O   0  0  0  0  0  0
   35.1543   -0.0844   19.1615 C   0  0  0  0  0  0
   34.8376   -1.4145   19.0343 C   0  0  0  0  0  0
   34.1397   -2.4382   20.1279 S   0  0  0  0  0  0
   34.1195   -3.8291   19.1717 C   0  0  0  0  0  0
   33.5036   -5.1172   19.6000 C   0  0  0  0  0  0
   33.4173   -5.3040   20.9659 C   0  0  0  0  0  0
   32.7772   -6.4398   21.4348 C   0  0  0  0  0  0
   32.2695   -7.3899   20.5708 C   0  0  0  0  0  0
   31.6379   -8.4990   21.1363 O   0  0  0  0  0  0
   32.3157   -7.1793   19.2083 C   0  0  0  0  0  0
   32.9447   -6.0292   18.7476 C   0  0  0  0  0  0
   35.0248   -2.1082   17.8047 C   0  0  0  0  0  0
   34.5830   -3.4919   17.8825 C   0  0  0  0  0  0
   34.6359   -4.3484   16.7995 C   0  0  0  0  0  0
   34.2792   -3.9414   15.6867 O   0  0  0  0  0  0
   35.0864   -5.7403   16.9086 C   0  0  0  0  0  0
   36.0546   -6.0967   17.8256 C   0  0  0  0  0  0
   36.5115   -7.3951   17.9436 C   0  0  0  0  0  0
   35.9961   -8.3665   17.0873 C   0  0  0  0  0  0
   35.0194   -8.0225   16.1698 C   0  0  0  0  0  0
   34.5601   -6.7184   16.0914 C   0  0  0  0  0  0
   36.2988   -9.6939   17.0108 O   0  0  0  0  0  0
   37.5592  -10.0883   17.5312 C   0  0  0  0  0  0
   37.4102  -10.5829   18.9452 C   0  0  0  0  0  0
   37.0656   -9.8406   20.1426 N   0  0  0  0  0  0
   35.6335   -9.4841   20.0861 C   0  0  0  0  0  0
   35.1063   -8.8214   21.3747 C   0  0  0  0  0  0
   35.8881   -7.5094   21.5496 C   0  0  0  0  0  0
   37.3574   -7.9776   21.7836 C   0  0  0  0  0  0
   37.8356   -8.6253   20.4723 C   0  0  0  0  0  0
   36.4682    2.2660   17.2864 H   0  0  0  0  0  0
   31.6854   -8.6443   22.0608 H   0  0  0  0  0  0
  1  2  2  0  0  0
  1 16  1  0  0  0
  2  3  1  0  0  0
  3  4  1  0  0  0
  3  5  2  0  0  0
  4 35  1  0  0  0
  5  6  1  0  0  0
  6  7  1  0  0  0
  6 16  2  0  0  0
  7  8  1  0  0  0
  8  9  1  0  0  0
  8 17  2  0  0  0
  9 10  2  0  0  0
  9 15  1  0  0  0
 10 11  1  0  0  0
 11 12  2  0  0  0
 12 13  1  0  0  0
 12 14  1  0  0  0
 13 36  1  0  0  0
 14 15  2  0  0  0
 16 17  1  0  0  0
 17 18  1  0  0  0
 18 19  2  0  0  0
 18 20  1  0  0  0
 20 21  2  0  0  0
 20 25  1  0  0  0
 21 22  1  0  0  0
 22 23  2  0  0  0
 23 24  1  0  0  0
 23 26  1  0  0  0
 24 25  2  0  0  0
 26 27  1  0  0  0
 27 28  1  0  0  0
 28 29  1  0  0  0
 29 30  1  0  0  0
 29 34  1  0  0  0
 30 31  1  0  0  0
 31 32  1  0  0  0
 32 33  1  0  0  0
 33 34  1  0  0  0
M  END
>  <CHROM.0>
108.43731970,-60.18089710,-72.14047864

>  <CHROM.1>
3.46742692,-24.58434791,-9.37364260,137.24820108,-32.51545796,-22.35324806
96.13852746,-68.22611762,72.35915277,35.05191067,-5.57584936,18.83908271
-1.71220700,-0.94608960,2.86607163

>  <FORMUL>
      RAL    C28 H27 N1 O4 S1

>  <HET>
 RAL  A 600      34

>  <HETNAM>
     RAL RALOXIFENE

>  <Name>
RAL.pdb

>  <RI>
0

>  <Rbt.Current_Directory>
/home/malgorzata/Desktop/rDOCK_IFD/Wyniki/6a_estrogen_receptor/IFD

>  <Rbt.Executable>
rbdock ($Id: //depot/dev/client3/rdock/2013.1/src/exe/rbdock.cxx#4 $)

>  <Rbt.Library>
libRbt.so (2013.1, Build901 2013/11/27)

>  <Rbt.Parameter_File>
/home/malgorzata/Desktop/rDock_2013.1_src/data/scripts/hard_docking.prm

>  <Rbt.Receptor>
cavity.prm

>  <SCORE>
-6.16589

>  <SCORE.INTER>
-3.0205

>  <SCORE.INTER.CONST>
1

>  <SCORE.INTER.POLAR>
0

>  <SCORE.INTER.REPUL>
0

>  <SCORE.INTER.ROT>
7

>  <SCORE.INTER.VDW>
-15.4205

>  <SCORE.INTER.norm>
-0.0888382

>  <SCORE.INTRA>
-3.16756

>  <SCORE.INTRA.DIHEDRAL>
-1.7265

>  <SCORE.INTRA.DIHEDRAL.0>
18.358

>  <SCORE.INTRA.POLAR>
0

>  <SCORE.INTRA.POLAR.0>
0

>  <SCORE.INTRA.REPUL>
0

>  <SCORE.INTRA.REPUL.0>
0

>  <SCORE.INTRA.VDW>
-2.30431

>  <SCORE.INTRA.VDW.0>
-1.94569

>  <SCORE.INTRA.norm>
-0.0931635

>  <SCORE.RESTR>
0.409491

>  <SCORE.RESTR.CAVITY>
0.409491

>  <SCORE.RESTR.norm>
0.0120439

>  <SCORE.SYSTEM>
-0.387328

>  <SCORE.SYSTEM.CONST>
0

>  <SCORE.SYSTEM.DIHEDRAL>
0.802981

>  <SCORE.SYSTEM.VDW>
-0.788819

>  <SCORE.SYSTEM.norm>
-0.011392

>  <SCORE.heavy>
34

>  <SCORE.norm>
-0.18135

$$$$
RAL.pdb
  rDOCK(R)          3D
libRbt.so/2013.1/901 2013/11/27
 36 40  0  0  0  0  0  0  0  0999 V2000
   33.2420   -8.5099   17.8586 C   0  0  0  0  0  0
   33.0916   -9.4095   16.8348 C   0  0  0  0  0  0
   32.1468   -9.2587   15.8584 C   0  0  0  0  0  0
   32.1191  -10.2137   14.8729 O   0  0  0  0  0  0
   31.3079   -8.1387   15.8844 C   0  0  0  0  0  0
   31.4847   -7.2226   16.8919 C   0  0  0  0  0  0
   30.6343   -5.8442   17.2205 S   0  0  0  0  0  0
   31.4984   -5.3517   18.5845 C   0  0  0  0  0  0
   31.1331   -4.1657   19.4102 C   0  0  0  0  0  0
   32.0096   -3.8687   20.4356 C   0  0  0  0  0  0
   31.7784   -2.7288   21.1884 C   0  0  0  0  0  0
   30.6812   -1.9226   20.9577 C   0  0  0  0  0  0
   30.5341   -0.7931   21.7649 O   0  0  0  0  0  0
   29.8332   -2.1952   19.9044 C   0  0  0  0  0  0
   30.0826   -3.3313   19.1442 C   0  0  0  0  0  0
   32.4663   -7.4139   17.9058 C   0  0  0  0  0  0
   32.4501   -6.3463   18.8936 C   0  0  0  0  0  0
   33.2919   -6.3382   19.9895 C   0  0  0  0  0  0
   32.8645   -6.7232   21.0851 O   0  0  0  0  0  0
   34.6822   -5.8752   19.9200 C   0  0  0  0  0  0
   35.3497   -5.4790   21.0614 C   0  0  0  0  0  0
   36.6537   -5.0240   21.0286 C   0  0  0  0  0  0
   37.3015   -4.9367   19.7976 C   0  0  0  0  0  0
   36.6450   -5.3387   18.6481 C   0  0  0  0  0  0
   35.3469   -5.8165   18.7134 C   0  0  0  0  0  0
   38.5671   -4.5119   19.5197 O   0  0  0  0  0  0
   38.9794   -3.3009   20.1350 C   0  0  0  0  0  0
   38.5561   -2.1202   19.3024 C   0  0  0  0  0  0
   37.2394   -1.7823   18.7967 N   0  0  0  0  0  0
   36.2463   -2.0086   19.8661 C   0  0  0  0  0  0
   34.8226   -1.5417   19.5016 C   0  0  0  0  0  0
   34.3778   -2.3799   18.2922 C   0  0  0  0  0  0
   35.3591   -1.9511   17.1582 C   0  0  0  0  0  0
   36.7587   -2.4424   17.5672 C   0  0  0  0  0  0
   32.7174  -10.9342   14.9018 H   0  0  0  0  0  0
   29.8367   -0.1888   21.6024 H   0  0  0  0  0  0
  1  2  2  0  0  0
  1 16  1  0  0  0
  2  3  1  0  0  0
  3  4  1  0  0  0
  3  5  2  0  0  0
  4 35  1  0  0  0
  5  6  1  0  0  0
  6  7  1  0  0  0
  6 16  2  0  0  0
  7  8  1  0  0  0
  8  9  1  0  0  0
  8 17  2  0  0  0
  9 10  2  0  0  0
  9 15  1  0  0  0
 10 11  1  0  0  0
 11 12  2  0  0  0
 12 13  1  0  0  0
 12 14  1  0  0  0
 13 36  1  0  0  0
 14 15  2  0  0  0
 16 17  1  0  0  0
 17 18  1  0  0  0
 18 19  2  0  0  0
 18 20  1  0  0  0
 20 21  2  0  0  0
 20 25  1  0  0  0
 21 22  1  0  0  0
 22 23  2  0  0  0
 23 24  1  0  0  0
 23 26  1  0  0  0
 24 25  2  0  0  0
 26 27  1  0  0  0
 27 28  1  0  0  0
 28 29  1  0  0  0
 29 30  1  0  0  0
 29 34  1  0  0  0
 30 31  1  0  0  0
 31 32  1  0  0  0
 32 33  1  0  0  0
 33 34  1  0  0  0
M  END
>  <CHROM.0>
178.26110891,-60.18089710,-66.58628390

>  <CHROM.1>
1.29320229,-175.92520258,175.78282080,81.56983237,159.16488360,-46.65760618
-85.93728731,53.23562369,43.27094131,33.73385053,-4.82684846,18.87882448
-2.28575326,0.01907593,0.49290427

>  <FORMUL>
      RAL    C28 H27 N1 O4 S1

>  <HET>
 RAL  A 600      34

>  <HETNAM>
     RAL RALOXIFENE

>  <Name>
RAL.pdb

>  <RI>
0

>  <Rbt.Current_Directory>
/home/malgorzata/Desktop/rDOCK_IFD/Wyniki/6a_estrogen_receptor/IFD

>  <Rbt.Executable>
rbdock ($Id: //depot/dev/client3/rdock/2013.1/src/exe/rbdock.cxx#4 $)

>  <Rbt.Library>
libRbt.so (2013.1, Build901 2013/11/27)

>  <Rbt.Parameter_File>
/home/malgorzata/Desktop/rDock_2013.1_src/data/scripts/hard_docking.prm

>  <Rbt.Receptor>
cavity.prm

>  <SCORE>
-10.094

>  <SCORE.INTER>
-8.09498

>  <SCORE.INTER.CONST>
1

>  <SCORE.INTER.POLAR>
0

>  <SCORE.INTER.REPUL>
0

>  <SCORE.INTER.ROT>
7

>  <SCORE.INTER.VDW>
-20.495

>  <SCORE.INTER.norm>
-0.238088

>  <SCORE.INTRA>
-2.40665

>  <SCORE.INTRA.DIHEDRAL>
0.693491

>  <SCORE.INTRA.DIHEDRAL.0>
18.358

>  <SCORE.INTRA.POLAR>
0

>  <SCORE.INTRA.POLAR.0>
0

>  <SCORE.INTRA.REPUL>
0

>  <SCORE.INTRA.REPUL.0>
0

>  <SCORE.INTRA.VDW>
-2.7534

>  <SCORE.INTRA.VDW.0>
-1.94569

>  <SCORE.INTRA.norm>
-0.0707839

>  <SCORE.RESTR>
0.768941

>  <SCORE.RESTR.CAVITY>
0.768941

>  <SCORE.RESTR.norm>
0.0226159

>  <SCORE.SYSTEM>
-0.361305

>  <SCORE.SYSTEM.CONST>
0

>  <SCORE.SYSTEM.DIHEDRAL>
0.801272

>  <SCORE.SYSTEM.VDW>
-0.761941

>  <SCORE.SYSTEM.norm>
-0.0106266

>  <SCORE.heavy>
34

>  <SCORE.norm>
-0.296882

$$$$
RAL.pdb
  rDOCK(R)          3D
libRbt.so/2013.1/901 2013/11/27
 36 40  0  0  0  0  0  0  0  0999 V2000
   35.6831   -0.9757   19.5182 C   0  0  0  0  0  0
   36.0077    0.3266   19.2383 C   0  0  0  0  0  0
   37.3020    0.7534   19.1309 C   0  0  0  0  0  0
   37.4922    2.0761   18.8174 O   0  0  0  0  0  0
   38.3427   -0.1683   19.2931 C   0  0  0  0  0  0
   38.0127   -1.4782   19.5392 C   0  0  0  0  0  0
   38.9973   -2.7749   19.8228 S   0  0  0  0  0  0
   37.7973   -3.9459   20.0179 C   0  0  0  0  0  0
   38.0770   -5.3608   20.3944 C   0  0  0  0  0  0
   39.4147   -5.6942   20.4813 C   0  0  0  0  0  0
   39.7478   -6.9685   20.9112 C   0  0  0  0  0  0
   38.7781   -7.9053   21.2096 C   0  0  0  0  0  0
   39.2102   -9.1615   21.6386 O   0  0  0  0  0  0
   37.4443   -7.5563   21.1665 C   0  0  0  0  0  0
   37.1201   -6.2708   20.7505 C   0  0  0  0  0  0
   36.6555   -1.8917   19.6627 C   0  0  0  0  0  0
   36.5392   -3.3094   19.9662 C   0  0  0  0  0  0
   35.3190   -3.9268   20.1648 C   0  0  0  0  0  0
   34.8250   -4.6011   19.2523 O   0  0  0  0  0  0
   34.5630   -3.8083   21.4165 C   0  0  0  0  0  0
   33.1893   -3.9440   21.4244 C   0  0  0  0  0  0
   32.4464   -3.8234   22.5828 C   0  0  0  0  0  0
   33.1068   -3.5263   23.7737 C   0  0  0  0  0  0
   34.4841   -3.3961   23.7791 C   0  0  0  0  0  0
   35.2069   -3.5489   22.6078 C   0  0  0  0  0  0
   32.5900   -3.3508   25.0233 O   0  0  0  0  0  0
   31.3317   -2.6987   25.1037 C   0  0  0  0  0  0
   30.8422   -2.6792   26.5272 C   0  0  0  0  0  0
   29.5630   -2.2378   27.0489 N   0  0  0  0  0  0
   28.5313   -3.2281   26.6802 C   0  0  0  0  0  0
   27.1500   -2.9500   27.3068 C   0  0  0  0  0  0
   26.6821   -1.5910   26.7614 C   0  0  0  0  0  0
   27.7166   -0.5784   27.3418 C   0  0  0  0  0  0
   29.0711   -0.8949   26.6840 C   0  0  0  0  0  0
   36.7540    2.6430   18.7100 H   0  0  0  0  0  0
   38.5837   -9.8185   21.8707 H   0  0  0  0  0  0
  1  2  2  0  0  0
  1 16  1  0  0  0
  2  3  1  0  0  0
  3  4  1  0  0  0
  3  5  2  0  0  0
  4 35  1  0  0  0
  5  6  1  0  0  0
  6  7  1  0  0  0
  6 16  2  0  0  0
  7  8  1  0  0  0
  8  9  1  0  0  0
  8 17  2  0  0  0
  9 10  2  0  0  0
  9 15  1  0  0  0
 10 11  1  0  0  0
 11 12  2  0  0  0
 12 13  1  0  0  0
 12 14  1  0  0  0
 13 36  1  0  0  0
 14 15  2  0  0  0
 16 17  1  0  0  0
 17 18  1  0  0  0
 18 19  2  0  0  0
 18 20  1  0  0  0
 20 21  2  0  0  0
 20 25  1  0  0  0
 21 22  1  0  0  0
 22 23  2  0  0  0
 23 24  1  0  0  0
 23 26  1  0  0  0
 24 25  2  0  0  0
 26 27  1  0  0  0
 27 28  1  0  0  0
 28 29  1  0  0  0
 29 30  1  0  0  0
 29 34  1  0  0  0
 30 31  1  0  0  0
 31 32  1  0  0  0
 32 33  1  0  0  0
 33 34  1  0  0  0
M  END
>  <CHROM.0>
-99.96265912,-60.18089710,152.02737680

>  <CHROM.1>
1.56571715,-4.68537409,178.53527870,-78.02436229,153.52916939,-36.81153700
175.38230690,-173.41570078,72.49630476,34.76353553,-3.23789455,22.18891686
0.04586126,0.62774973,-0.35293677

>  <FORMUL>
      RAL    C28 H27 N1 O4 S1

>  <HET>
 RAL  A 600      34

>  <HETNAM>
     RAL RALOXIFENE

>  <Name>
RAL.pdb

>  <RI>
0

>  <Rbt.Current_Directory>
/home/malgorzata/Desktop/rDOCK_IFD/Wyniki/6a_estrogen_receptor/IFD

>  <Rbt.Executable>
rbdock ($Id: //depot/dev/client3/rdock/2013.1/src/exe/rbdock.cxx#4 $)

>  <Rbt.Library>
libRbt.so (2013.1, Build901 2013/11/27)

>  <Rbt.Parameter_File>
/home/malgorzata/Desktop/rDock_2013.1_src/data/scripts/hard_docking.prm

>  <Rbt.Receptor>
cavity.prm

>  <SCORE>
-14.1951

>  <SCORE.INTER>
-13.7226

>  <SCORE.INTER.CONST>
1

>  <SCORE.INTER.POLAR>
0

>  <SCORE.INTER.REPUL>
0

>  <SCORE.INTER.ROT>
7

>  <SCORE.INTER.VDW>
-26.1226

>  <SCORE.INTER.norm>
-0.403606

>  <SCORE.INTRA>
-1.36954

>  <SCORE.INTRA.DIHEDRAL>
-2.744

>  <SCORE.INTRA.DIHEDRAL.0>
18.358

>  <SCORE.INTRA.POLAR>
0

>  <SCORE.INTRA.POLAR.0>
0

>  <SCORE.INTRA.REPUL>
0

>  <SCORE.INTRA.REPUL.0>
0

>  <SCORE.INTRA.VDW>
0.00246527

>  <SCORE.INTRA.VDW.0>
-1.94569

>  <SCORE.INTRA.norm>
-0.0402805

>  <SCORE.RESTR>
1.24224

>  <SCORE.RESTR.CAVITY>
1.24224

>  <SCORE.RESTR.norm>
0.0365365

>  <SCORE.SYSTEM>
-0.34523

>  <SCORE.SYSTEM.CONST>
0

>  <SCORE.SYSTEM.DIHEDRAL>
0.782572

>  <SCORE.SYSTEM.VDW>
-0.736516

>  <SCORE.SYSTEM.norm>
-0.0101538

>  <SCORE.heavy>
34

>  <SCORE.norm>
-0.417504

$$$$
RAL.pdb
  rDOCK(R)          3D
libRbt.so/2013.1/901 2013/11/27
 36 40  0  0  0  0  0  0  0  0999 V2000
   33.9329   -8.1664   18.6140 C   0  0  0  0  0  0
   34.6886   -8.9630   17.7929 C   0  0  0  0  0  0
   34.6636   -8.8460   16.4312 C   0  0  0  0  0  0
   35.4897   -9.6835   15.7240 O   0  0  0  0  0  0
   33.8538   -7.8680   15.8426 C   0  0  0  0  0  0
   33.1249   -7.0495   16.6699 C   0  0  0  0  0  0
   32.0534   -5.8515   16.2855 S   0  0  0  0  0  0
   31.6411   -5.3890   17.8557 C   0  0  0  0  0  0
   30.6058   -4.3637   18.1700 C   0  0  0  0  0  0
   29.7414   -4.6939   19.1956 C   0  0  0  0  0  0
   28.8095   -3.7513   19.5989 C   0  0  0  0  0  0
   28.7085   -2.5240   18.9739 C   0  0  0  0  0  0
   27.7416   -1.6381   19.4526 O   0  0  0  0  0  0
   29.6021   -2.1787   17.9814 C   0  0  0  0  0  0
   30.5442   -3.1242   17.5951 C   0  0  0  0  0  0
   33.1573   -7.2051   18.0851 C   0  0  0  0  0  0
   32.2786   -6.2634   18.7610 C   0  0  0  0  0  0
   32.1206   -6.2518   20.1338 C   0  0  0  0  0  0
   31.8913   -7.3135   20.7266 O   0  0  0  0  0  0
   32.1978   -5.0234   20.9321 C   0  0  0  0  0  0
   32.0736   -5.0682   22.3061 C   0  0  0  0  0  0
   32.1267   -3.9289   23.0855 C   0  0  0  0  0  0
   32.2815   -2.6945   22.4571 C   0  0  0  0  0  0
   32.4151   -2.6383   21.0812 C   0  0  0  0  0  0
   32.3854   -3.7990   20.3265 C   0  0  0  0  0  0
   32.3485   -1.4500   23.0103 O   0  0  0  0  0  0
   31.6391   -1.2562   24.2244 C   0  0  0  0  0  0
   32.4650   -1.7229   25.3935 C   0  0  0  0  0  0
   33.6610   -1.1321   25.9627 N   0  0  0  0  0  0
   34.0317   -1.8849   27.1780 C   0  0  0  0  0  0
   35.3762   -1.4484   27.7940 C   0  0  0  0  0  0
   35.2158    0.0229   28.2097 C   0  0  0  0  0  0
   35.0086    0.7733   26.8582 C   0  0  0  0  0  0
   33.6570    0.3073   26.2894 C   0  0  0  0  0  0
   35.5649   -9.5924   14.7945 H   0  0  0  0  0  0
   27.0777   -1.9418   20.0400 H   0  0  0  0  0  0
  1  2  2  0  0  0
  1 16  1  0  0  0
  2  3  1  0  0  0
  3  4  1  0  0  0
  3  5  2  0  0  0
  4 35  1  0  0  0
  5  6  1  0  0  0
  6  7  1  0  0  0
  6 16  2  0  0  0
  7  8  1  0  0  0
  8  9  1  0  0  0
  8 17  2  0  0  0
  9 10  2  0  0  0
  9 15  1  0  0  0
 10 11  1  0  0  0
 11 12  2  0  0  0
 12 13  1  0  0  0
 12 14  1  0  0  0
 13 36  1  0  0  0
 14 15  2  0  0  0
 16 17  1  0  0  0
 17 18  1  0  0  0
 18 19  2  0  0  0
 18 20  1  0  0  0
 20 21  2  0  0  0
 20 25  1  0  0  0
 21 22  1  0  0  0
 22 23  2  0  0  0
 23 24  1  0  0  0
 23 26  1  0  0  0
 24 25  2  0  0  0
 26 27  1  0  0  0
 27 28  1  0  0  0
 28 29  1  0  0  0
 29 30  1  0  0  0
 29 34  1  0  0  0
 30 31  1  0  0  0
 31 32  1  0  0  0
 32 33  1  0  0  0
 33 34  1  0  0  0
M  END
>  <CHROM.0>
-103.27279252,-60.18089710,148.37109730

>  <CHROM.1>
-174.69583256,135.99598469,-12.95704106,131.56919830,-178.01722315,-29.79933801
83.40058957,70.72282416,174.72031504,32.39823590,-4.18676156,20.76476733
-1.66403273,-0.61067626,0.91552167

>  <FORMUL>
      RAL    C28 H27 N1 O4 S1

>  <HET>
 RAL  A 600      34

>  <HETNAM>
     RAL RALOXIFENE

>  <Name>
RAL.pdb

>  <RI>
0

>  <Rbt.Current_Directory>
/home/malgorzata/Desktop/rDOCK_IFD/Wyniki/6a_estrogen_receptor/IFD

>  <Rbt.Executable>
rbdock ($Id: //depot/dev/client3/rdock/2013.1/src/exe/rbdock.cxx#4 $)

>  <Rbt.Library>
libRbt.so (2013.1, Build901 2013/11/27)

>  <Rbt.Parameter_File>
/home/malgorzata/Desktop/rDock_2013.1_src/data/scripts/hard_docking.prm

>  <Rbt.Receptor>
cavity.prm

>  <SCORE>
-12.94

>  <SCORE.INTER>
-11.7671

>  <SCORE.INTER.CONST>
1

>  <SCORE.INTER.POLAR>
0

>  <SCORE.INTER.REPUL>
0

>  <SCORE.INTER.ROT>
7

>  <SCORE.INTER.VDW>
-24.1671

>  <SCORE.INTER.norm>
-0.346092

>  <SCORE.INTRA>
-0.909005

>  <SCORE.INTRA.DIHEDRAL>
-2.07739

>  <SCORE.INTRA.DIHEDRAL.0>
18.358

>  <SCORE.INTRA.POLAR>
0

>  <SCORE.INTRA.POLAR.0>
0

>  <SCORE.INTRA.REPUL>
0

>  <SCORE.INTRA.REPUL.0>
0

>  <SCORE.INTRA.VDW>
0.129691

>  <SCORE.INTRA.VDW.0>
-1.94569

>  <SCORE.INTRA.norm>
-0.0267355

>  <SCORE.RESTR>
0.0818505

>  <SCORE.RESTR.CAVITY>
0.0818505

>  <SCORE.RESTR.norm>
0.00240737

>  <SCORE.SYSTEM>
-0.345739

>  <SCORE.SYSTEM.CONST>
0

>  <SCORE.SYSTEM.DIHEDRAL>
0.783656

>  <SCORE.SYSTEM.VDW>
-0.737567

>  <SCORE.SYSTEM.norm>
-0.0101688

>  <SCORE.heavy>
34

>  <SCORE.norm>
-0.380589

$$$$
RAL.pdb
  rDOCK(R)          3D
libRbt.so/2013.1/901 2013/11/27
 36 40  0  0  0  0  0  0  0  0999 V2000
   34.8500   -5.3081   16.5567 C   0  0  0  0  0  0
   34.5623   -5.5144   15.2321 C   0  0  0  0  0  0
   34.4396   -6.7650   14.6940 C   0  0  0  0  0  0
   34.1198   -6.8353   13.3610 O   0  0  0  0  0  0
   34.5935   -7.8841   15.5202 C   0  0  0  0  0  0
   34.8475   -7.6728   16.8530 C   0  0  0  0  0  0
   35.1247   -8.7703   18.0572 S   0  0  0  0  0  0
   35.3365   -7.6796   19.3281 C   0  0  0  0  0  0
   35.7146   -8.0862   20.7114 C   0  0  0  0  0  0
   36.4504   -7.1557   21.4191 C   0  0  0  0  0  0
   36.7617   -7.4313   22.7407 C   0  0  0  0  0  0
   36.3880   -8.6196   23.3368 C   0  0  0  0  0  0
   36.7435   -8.8060   24.6739 O   0  0  0  0  0  0
   35.6143   -9.5268   22.6432 C   0  0  0  0  0  0
   35.2926   -9.2343   21.3234 C   0  0  0  0  0  0
   34.9869   -6.3585   17.3833 C   0  0  0  0  0  0
   35.2963   -6.3701   18.8045 C   0  0  0  0  0  0
   35.5101   -5.2108   19.5256 C   0  0  0  0  0  0
   36.4551   -4.4726   19.2203 O   0  0  0  0  0  0
   34.6691   -4.8145   20.6604 C   0  0  0  0  0  0
   35.1088   -3.8703   21.5662 C   0  0  0  0  0  0
   34.3482   -3.4858   22.6533 C   0  0  0  0  0  0
   33.1106   -4.0949   22.8535 C   0  0  0  0  0  0
   32.6561   -5.0366   21.9477 C   0  0  0  0  0  0
   33.4277   -5.3836   20.8513 C   0  0  0  0  0  0
   32.2016   -3.8893   23.8489 O   0  0  0  0  0  0
   32.6581   -3.1748   24.9874 C   0  0  0  0  0  0
   31.5973   -3.1593   26.0556 C   0  0  0  0  0  0
   30.2459   -2.6364   25.9954 N   0  0  0  0  0  0
   30.3064   -1.1608   25.9848 C   0  0  0  0  0  0
   28.9378   -0.4837   25.7697 C   0  0  0  0  0  0
   28.0524   -0.8873   26.9597 C   0  0  0  0  0  0
   27.8873   -2.4298   26.7973 C   0  0  0  0  0  0
   29.2746   -3.0553   27.0248 C   0  0  0  0  0  0
   34.4453   -6.1885   12.7664 H   0  0  0  0  0  0
   37.1954   -8.1285   25.1374 H   0  0  0  0  0  0
  1  2  2  0  0  0
  1 16  1  0  0  0
  2  3  1  0  0  0
  3  4  1  0  0  0
  3  5  2  0  0  0
  4 35  1  0  0  0
  5  6  1  0  0  0
  6  7  1  0  0  0
  6 16  2  0  0  0
  7  8  1  0  0  0
  8  9  1  0  0  0
  8 17  2  0  0  0
  9 10  2  0  0  0
  9 15  1  0  0  0
 10 11  1  0  0  0
 11 12  2  0  0  0
 12 13  1  0  0  0
 12 14  1  0  0  0
 13 36  1  0  0  0
 14 15  2  0  0  0
 16 17  1  0  0  0
 17 18  1  0  0  0
 18 19  2  0  0  0
 18 20  1  0  0  0
 20 21  2  0  0  0
 20 25  1  0  0  0
 21 22  1  0  0  0
 22 23  2  0  0  0
 23 24  1  0  0  0
 23 26  1  0  0  0
 24 25  2  0  0  0
 26 27  1  0  0  0
 27 28  1  0  0  0
 28 29  1  0  0  0
 29 30  1  0  0  0
 29 34  1  0  0  0
 30 31  1  0  0  0
 31 32  1  0  0  0
 32 33  1  0  0  0
 33 34  1  0  0  0
M  END
>  <CHROM.0>
145.42723495,-60.18089710,-65.44150175

>  <CHROM.1>
34.42094212,149.89946823,1.73725416,118.53796633,162.42746658,-14.38284912
-173.78732085,-59.35759259,-71.99931340,33.75128608,-5.52333715,21.28850585
0.85291116,0.81466021,-1.52355389

>  <FORMUL>
      RAL    C28 H27 N1 O4 S1

>  <HET>
 RAL  A 600      34

>  <HETNAM>
     RAL RALOXIFENE

>  <Name>
RAL.pdb

>  <RI>
0

>  <Rbt.Current_Directory>
/home/malgorzata/Desktop/rDOCK_IFD/Wyniki/6a_estrogen_receptor/IFD

>  <Rbt.Executable>
rbdock ($Id: //depot/dev/client3/rdock/2013.1/src/exe/rbdock.cxx#4 $)

>  <Rbt.Library>
libRbt.so (2013.1, Build901 2013/11/27)

>  <Rbt.Parameter_File>
/home/malgorzata/Desktop/rDock_2013.1_src/data/scripts/hard_docking.prm

>  <Rbt.Receptor>
cavity.prm

>  <SCORE>
-10.6081

>  <SCORE.INTER>
-9.42542

>  <SCORE.INTER.CONST>
1

>  <SCORE.INTER.POLAR>
-0.898475

>  <SCORE.INTER.REPUL>
0

>  <SCORE.INTER.ROT>
7

>  <SCORE.INTER.VDW>
-18.7706

>  <SCORE.INTER.norm>
-0.277218

>  <SCORE.INTRA>
-1.86853

>  <SCORE.INTRA.DIHEDRAL>
-3.39602

>  <SCORE.INTRA.DIHEDRAL.0>
18.358

>  <SCORE.INTRA.POLAR>
0

>  <SCORE.INTRA.POLAR.0>
0

>  <SCORE.INTRA.REPUL>
0

>  <SCORE.INTRA.REPUL.0>
0

>  <SCORE.INTRA.VDW>
-0.17052

>  <SCORE.INTRA.VDW.0>
-1.94569

>  <SCORE.INTRA.norm>
-0.0549568

>  <SCORE.RESTR>
1.04789

>  <SCORE.RESTR.CAVITY>
1.04789

>  <SCORE.RESTR.norm>
0.0308202

>  <SCORE.SYSTEM>
-0.362034

>  <SCORE.SYSTEM.CONST>
0

>  <SCORE.SYSTEM.DIHEDRAL>
0.794467

>  <SCORE.SYSTEM.VDW>
-0.759267

>  <SCORE.SYSTEM.norm>
-0.010648

>  <SCORE.heavy>
34

>  <SCORE.norm>
-0.312003

$$$$
RAL.pdb
  rDOCK(R)          3D
libRbt.so/2013.1/901 2013/11/27
 36 40  0  0  0  0  0  0  0  0999 V2000
   35.6441   -1.4105   19.5707 C   0  0  0  0  0  0
   35.9427   -0.4253   18.6651 C   0  0  0  0  0  0
   35.5293   -0.4756   17.3631 C   0  0  0  0  0  0
   35.8691    0.5886   16.5656 O   0  0  0  0  0  0
   34.7567   -1.5598   16.9313 C   0  0  0  0  0  0
   34.4309   -2.5271   17.8499 C   0  0  0  0  0  0
   33.5877   -3.9331   17.6416 S   0  0  0  0  0  0
   33.6579   -4.4899   19.2337 C   0  0  0  0  0  0
   33.1226   -5.8104   19.6714 C   0  0  0  0  0  0
   32.7604   -6.6675   18.6504 C   0  0  0  0  0  0
   32.3368   -7.9440   18.9830 C   0  0  0  0  0  0
   32.2352   -8.3499   20.2991 C   0  0  0  0  0  0
   31.8027   -9.6560   20.5359 O   0  0  0  0  0  0
   32.6409   -7.5090   21.3144 C   0  0  0  0  0  0
   33.0803   -6.2365   20.9703 C   0  0  0  0  0  0
   34.8896   -2.4574   19.1963 C   0  0  0  0  0  0
   34.4639   -3.6056   19.9812 C   0  0  0  0  0  0
   34.8207   -3.7707   21.3060 C   0  0  0  0  0  0
   35.9035   -4.3031   21.5804 O   0  0  0  0  0  0
   33.9602   -3.3535   22.4184 C   0  0  0  0  0  0
   34.4036   -3.4424   23.7226 C   0  0  0  0  0  0
   33.6133   -3.0720   24.7935 C   0  0  0  0  0  0
   32.3176   -2.6225   24.5454 C   0  0  0  0  0  0
   31.8653   -2.5217   23.2418 C   0  0  0  0  0  0
   32.6885   -2.8742   22.1855 C   0  0  0  0  0  0
   31.3628   -2.2185   25.4312 O   0  0  0  0  0  0
   31.0321   -0.8381   25.4220 C   0  0  0  0  0  0
   32.2467   -0.0067   25.7380 C   0  0  0  0  0  0
   33.0104    0.0665   26.9688 N   0  0  0  0  0  0
   32.3658    1.0415   27.8716 C   0  0  0  0  0  0
   32.9977    1.1000   29.2770 C   0  0  0  0  0  0
   34.4534    1.5572   29.0892 C   0  0  0  0  0  0
   35.1104    0.3938   28.2847 C   0  0  0  0  0  0
   34.4505    0.3815   26.8947 C   0  0  0  0  0  0
   35.5848    0.6148   15.6731 H   0  0  0  0  0  0
   31.6604   -9.9505   21.4140 H   0  0  0  0  0  0
  1  2  2  0  0  0
  1 16  1  0  0  0
  2  3  1  0  0  0
  3  4  1  0  0  0
  3  5  2  0  0  0
  4 35  1  0  0  0
  5  6  1  0  0  0
  6  7  1  0  0  0
  6 16  2  0  0  0
  7  8  1  0  0  0
  8  9  1  0  0  0
  8 17  2  0  0  0
  9 10  2  0  0  0
  9 15  1  0  0  0
 10 11  1  0  0  0
 11 12  2  0  0  0
 12 13  1  0  0  0
 12 14  1  0  0  0
 13 36  1  0  0  0
 14 15  2  0  0  0
 16 17  1  0  0  0
 17 18  1  0  0  0
 18 19  2  0  0  0
 18 20  1  0  0  0
 20 21  2  0  0  0
 20 25  1  0  0  0
 21 22  1  0  0  0
 22 23  2  0  0  0
 23 24  1  0  0  0
 23 26  1  0  0  0
 24 25  2  0  0  0
 26 27  1  0  0  0
 27 28  1  0  0  0
 28 29  1  0  0  0
 29 30  1  0  0  0
 29 34  1  0  0  0
 30 31  1  0  0  0
 31 32  1  0  0  0
 32 33  1  0  0  0
 33 34  1  0  0  0
M  END
>  <CHROM.0>
-146.19749562,-60.18089710,-64.96591373

>  <CHROM.1>
-177.96208586,10.62189271,-175.53749464,95.12099448,-174.86779021,111.05498708
-59.91879033,-65.77979217,-85.11797521,33.61525329,-2.85373474,22.03194785
-1.44913221,1.14438812,0.93413837

>  <FORMUL>
      RAL    C28 H27 N1 O4 S1

>  <HET>
 RAL  A 600      34

>  <HETNAM>
     RAL RALOXIFENE

>  <Name>
RAL.pdb

>  <RI>
0

>  <Rbt.Current_Directory>
/home/malgorzata/Desktop/rDOCK_IFD/Wyniki/6a_estrogen_receptor/IFD

>  <Rbt.Executable>
rbdock ($Id: //depot/dev/client3/rdock/2013.1/src/exe/rbdock.cxx#4 $)

>  <Rbt.Library>
libRbt.so (2013.1, Build901 2013/11/27)

>  <Rbt.Parameter_File>
/home/malgorzata/Desktop/rDock_2013.1_src/data/scripts/hard_docking.prm

>  <Rbt.Receptor>
cavity.prm

>  <SCORE>
-8.31869

>  <SCORE.INTER>
-7.75276

>  <SCORE.INTER.CONST>
1

>  <SCORE.INTER.POLAR>
0

>  <SCORE.INTER.REPUL>
0

>  <SCORE.INTER.ROT>
7

>  <SCORE.INTER.VDW>
-20.1528

>  <SCORE.INTER.norm>
-0.228022

>  <SCORE.INTRA>
-0.216472

>  <SCORE.INTRA.DIHEDRAL>
-0.768408

>  <SCORE.INTRA.DIHEDRAL.0>
18.358

>  <SCORE.INTRA.POLAR>
0

>  <SCORE.INTRA.POLAR.0>
0

>  <SCORE.INTRA.REPUL>
0

>  <SCORE.INTRA.REPUL.0>
0

>  <SCORE.INTRA.VDW>
0.167732

>  <SCORE.INTRA.VDW.0>
-1.94569

>  <SCORE.INTRA.norm>
-0.00636683

>  <SCORE.RESTR>
0

>  <SCORE.RESTR.CAVITY>
0

>  <SCORE.RESTR.norm>
0

>  <SCORE.SYSTEM>
-0.349463

>  <SCORE.SYSTEM.CONST>
0

>  <SCORE.SYSTEM.DIHEDRAL>
0.81297

>  <SCORE.SYSTEM.VDW>
-0.755948

>  <SCORE.SYSTEM.norm>
-0.0102783

>  <SCORE.heavy>
34

>  <SCORE.norm>
-0.244667

$$$$
RAL.pdb
  rDOCK(R)          3D
libRbt.so/2013.1/901 2013/11/27
 36 40  0  0  0  0  0  0  0  0999 V2000
   34.2479   -1.8630   16.6107 C   0  0  0  0  0  0
   35.1393   -1.3324   15.7141 C   0  0  0  0  0  0
   36.2686   -1.9957   15.3222 C   0  0  0  0  0  0
   37.0636   -1.3679   14.3961 O   0  0  0  0  0  0
   36.5258   -3.2722   15.8352 C   0  0  0  0  0  0
   35.6131   -3.8141   16.7063 C   0  0  0  0  0  0
   35.6559   -5.2573   17.5104 S   0  0  0  0  0  0
   34.1880   -5.1151   18.3316 C   0  0  0  0  0  0
   33.6964   -6.1129   19.3239 C   0  0  0  0  0  0
   32.3411   -6.0650   19.5863 C   0  0  0  0  0  0
   31.8013   -7.0198   20.4327 C   0  0  0  0  0  0
   32.5922   -7.9762   21.0383 C   0  0  0  0  0  0
   31.9579   -8.8989   21.8721 O   0  0  0  0  0  0
   33.9367   -8.0509   20.7392 C   0  0  0  0  0  0
   34.4662   -7.0994   19.8760 C   0  0  0  0  0  0
   34.4532   -3.0933   17.1102 C   0  0  0  0  0  0
   33.6507   -3.8374   18.0683 C   0  0  0  0  0  0
   32.4965   -3.3218   18.6267 C   0  0  0  0  0  0
   31.5190   -3.0996   17.9012 O   0  0  0  0  0  0
   32.3767   -3.0067   20.0544 C   0  0  0  0  0  0
   31.2889   -2.3031   20.5308 C   0  0  0  0  0  0
   31.1530   -1.9773   21.8664 C   0  0  0  0  0  0
   32.1635   -2.3478   22.7520 C   0  0  0  0  0  0
   33.2545   -3.0603   22.2871 C   0  0  0  0  0  0
   33.3520   -3.3972   20.9474 C   0  0  0  0  0  0
   32.2535   -2.1288   24.0948 O   0  0  0  0  0  0
   31.9623   -3.2324   24.9387 C   0  0  0  0  0  0
   31.7691   -2.7695   26.3581 C   0  0  0  0  0  0
   32.7010   -2.0817   27.2310 N   0  0  0  0  0  0
   32.9983   -0.7534   26.6579 C   0  0  0  0  0  0
   33.8625    0.1389   27.5715 C   0  0  0  0  0  0
   35.2078   -0.5830   27.7511 C   0  0  0  0  0  0
   34.8333   -1.8867   28.5210 C   0  0  0  0  0  0
   33.9784   -2.7401   27.5680 C   0  0  0  0  0  0
   36.8221   -0.5250   14.0658 H   0  0  0  0  0  0
   31.0221   -8.9355   21.9041 H   0  0  0  0  0  0
  1  2  2  0  0  0
  1 16  1  0  0  0
  2  3  1  0  0  0
  3  4  1  0  0  0
  3  5  2  0  0  0
  4 35  1  0  0  0
  5  6  1  0  0  0
  6  7  1  0  0  0
  6 16  2  0  0  0
  7  8  1  0  0  0
  8  9  1  0  0  0
  8 17  2  0  0  0
  9 10  2  0  0  0
  9 15  1  0  0  0
 10 11  1  0  0  0
 11 12  2  0  0  0
 12 13  1  0  0  0
 12 14  1  0  0  0
 13 36  1  0  0  0
 14 15  2  0  0  0
 16 17  1  0  0  0
 17 18  1  0  0  0
 18 19  2  0  0  0
 18 20  1  0  0  0
 20 21  2  0  0  0
 20 25  1  0  0  0
 21 22  1  0  0  0
 22 23  2  0  0  0
 23 24  1  0  0  0
 23 26  1  0  0  0
 24 25  2  0  0  0
 26 27  1  0  0  0
 27 28  1  0  0  0
 28 29  1  0  0  0
 29 30  1  0  0  0
 29 34  1  0  0  0
 30 31  1  0  0  0
 31 32  1  0  0  0
 32 33  1  0  0  0
 33 34  1  0  0  0
M  END
>  <CHROM.0>
-93.83086826,-60.18089710,-70.16613752

>  <CHROM.1>
0.12020537,-161.06931534,9.06491717,-113.97455494,169.77901995,102.79021748
-166.06489501,-60.14958486,64.31045444,33.62275061,-3.59074088,20.96580127
-1.10200872,1.18459926,0.95427478

>  <FORMUL>
      RAL    C28 H27 N1 O4 S1

>  <HET>
 RAL  A 600      34

>  <HETNAM>
     RAL RALOXIFENE

>  <Name>
RAL.pdb

>  <RI>
0

>  <Rbt.Current_Directory>
/home/malgorzata/Desktop/rDOCK_IFD/Wyniki/6a_estrogen_receptor/IFD

>  <Rbt.Executable>
rbdock ($Id: //depot/dev/client3/rdock/2013.1/src/exe/rbdock.cxx#4 $)

>  <Rbt.Library>
libRbt.so (2013.1, Build901 2013/11/27)

>  <Rbt.Parameter_File>
/home/malgorzata/Desktop/rDock_2013.1_src/data/scripts/hard_docking.prm

>  <Rbt.Receptor>
cavity.prm

>  <SCORE>
-9.25149

>  <SCORE.INTER>
-9.63888

>  <SCORE.INTER.CONST>
1

>  <SCORE.INTER.POLAR>
0

>  <SCORE.INTER.REPUL>
0

>  <SCORE.INTER.ROT>
7

>  <SCORE.INTER.VDW>
-22.0389

>  <SCORE.INTER.norm>
-0.283496

>  <SCORE.INTRA>
-0.557387

>  <SCORE.INTRA.DIHEDRAL>
-1.00248

>  <SCORE.INTRA.DIHEDRAL.0>
18.358

>  <SCORE.INTRA.POLAR>
0

>  <SCORE.INTRA.POLAR.0>
0

>  <SCORE.INTRA.REPUL>
0

>  <SCORE.INTRA.REPUL.0>
0

>  <SCORE.INTRA.VDW>
-0.0561463

>  <SCORE.INTRA.VDW.0>
-1.94569

>  <SCORE.INTRA.norm>
-0.0163937

>  <SCORE.RESTR>
1.31974

>  <SCORE.RESTR.CAVITY>
1.31974

>  <SCORE.RESTR.norm>
0.038816

>  <SCORE.SYSTEM>
-0.374977

>  <SCORE.SYSTEM.CONST>
0

>  <SCORE.SYSTEM.DIHEDRAL>
0.79012

>  <SCORE.SYSTEM.VDW>
-0.770037

>  <SCORE.SYSTEM.norm>
-0.0110287

>  <SCORE.heavy>
34

>  <SCORE.norm>
-0.272103

$$$$
