REMARK  9 active torsions:
REMARK  status: ('A' for Active; 'I' for Inactive)
REMARK    1  A    between atoms: C3_3  and  O3_4 
REMARK    2  A    between atoms: C7_9  and  C8_10 
REMARK    3  A    between atoms: C11_13  and  O11_14 
REMARK    4  A    between atoms: C15_19  and  C16_20 
REMARK    5  A    between atoms: C16_20  and  C17_22 
REMARK    6  A    between atoms: C20_25  and  O23_28 
REMARK    7  A    between atoms: O23_28  and  C24_29 
REMARK    8  A    between atoms: C24_29  and  C25_30 
REMARK    9  A    between atoms: C25_30  and  N26_31 
ROOT
HETATM    1  C1  RAL A 600      28.391  -2.211  26.513  1.00 31.33     0.016 A 
HETATM    2  C2  RAL A 600      27.022  -2.150  26.482  1.00 30.47     0.037 A 
HETATM    3  C3  RAL A 600      26.335  -0.978  26.632  1.00 31.66     0.067 A 
HETATM    4  C4  RAL A 600      27.047   0.215  26.806  1.00 33.99     0.056 A 
HETATM    5  C5  RAL A 600      28.419   0.155  26.802  1.00 33.49     0.019 A 
HETATM    6  S6  RAL A 600      29.524   1.362  27.030  1.00 33.96    -0.088 SA
HETATM    7  C7  RAL A 600      30.925   0.434  26.869  1.00 34.48     0.031 A 
HETATM    8  C14 RAL A 600      29.108  -1.083  26.661  1.00 31.87    -0.003 A 
HETATM    9  C15 RAL A 600      30.551  -0.919  26.728  1.00 33.10     0.044 A 
ENDROOT
BRANCH   9  10
HETATM   10  C16 RAL A 600      31.423  -1.988  26.649  1.00 36.94     0.194 C 
HETATM   11  O16 RAL A 600      31.648  -2.663  27.662  1.00 40.67    -0.287 OA
BRANCH  10  12
HETATM   12  C17 RAL A 600      32.116  -2.359  25.411  1.00 36.96     0.015 A 
HETATM   13  C18 RAL A 600      31.903  -1.650  24.246  1.00 34.73     0.018 A 
HETATM   14  C19 RAL A 600      32.528  -1.982  23.059  1.00 34.67     0.037 A 
HETATM   15  C20 RAL A 600      33.378  -3.087  23.037  1.00 37.20     0.068 A 
HETATM   16  C21 RAL A 600      33.606  -3.800  24.200  1.00 40.93     0.037 A 
HETATM   17  C22 RAL A 600      32.986  -3.428  25.382  1.00 39.84     0.018 A 
BRANCH  15  18
HETATM   18  O23 RAL A 600      34.087  -3.606  21.994  1.00 36.45    -0.349 OA
BRANCH  18  19
HETATM   19  C24 RAL A 600      33.506  -3.477  20.705  1.00 38.03     0.206 C 
BRANCH  19  20
HETATM   20  C25 RAL A 600      32.056  -3.883  20.742  1.00 43.08     0.299 C 
BRANCH  20  21
HETATM   21  N26 RAL A 600      31.020  -3.666  19.751  1.00 46.61     0.090 N 
HETATM   22  C27 RAL A 600      31.583  -2.875  18.638  1.00 47.65     0.272 C 
HETATM   23  C28 RAL A 600      30.620  -2.705  17.446  1.00 48.95     0.030 C 
HETATM   24  C29 RAL A 600      29.399  -1.933  17.971  1.00 50.06     0.003 C 
HETATM   25  C30 RAL A 600      28.757  -2.907  19.007  1.00 50.91     0.030 C 
HETATM   26  C31 RAL A 600      29.752  -3.039  20.173  1.00 50.67     0.272 C 
ENDBRANCH  20  21
ENDBRANCH  19  20
ENDBRANCH  18  19
ENDBRANCH  15  18
ENDBRANCH  10  12
ENDBRANCH   9  10
BRANCH   7  27
HETATM   27  C8  RAL A 600      32.301   0.973  27.066  1.00 35.62    -0.018 A 
HETATM   28  C9  RAL A 600      32.786   0.892  28.357  1.00 35.20     0.015 A 
HETATM   29  C10 RAL A 600      34.090   1.294  28.595  1.00 38.32     0.037 A 
HETATM   30  C11 RAL A 600      34.883   1.805  27.586  1.00 39.44     0.065 A 
HETATM   31  C12 RAL A 600      34.412   1.843  26.290  1.00 36.17     0.037 A 
HETATM   32  C13 RAL A 600      33.109   1.421  26.057  1.00 34.51     0.015 A 
BRANCH  30  33
HETATM   33  O11 RAL A 600      36.185   2.180  27.921  1.00 46.17    -0.361 OA
ATOM     34  H11 RAL A 600      36.313   2.614  28.757  1.00  0.00     0.217 HD
ENDBRANCH  30  33
ENDBRANCH   7  27
BRANCH   3  35
HETATM   35  O3  RAL A 600      24.967  -1.048  26.552  1.00 32.81    -0.361 OA
ATOM     36  H3  RAL A 600      24.603  -1.814  26.123  1.00  0.00     0.217 HD
ENDBRANCH   3  35
TORSDOF 9
