REMARK  9 active torsions:
REMARK  status: ('A' for Active; 'I' for Inactive)
REMARK    1  A    between atoms: C3_3  and  O3_4 
REMARK    2  A    between atoms: C7_9  and  C8_10 
REMARK    3  A    between atoms: C11_13  and  O11_14 
REMARK    4  A    between atoms: C15_19  and  C16_20 
REMARK    5  A    between atoms: C16_20  and  C17_22 
REMARK    6  A    between atoms: C20_25  and  O23_28 
REMARK    7  A    between atoms: O23_28  and  C24_29 
REMARK    8  A    between atoms: C24_29  and  C25_30 
REMARK    9  A    between atoms: C25_30  and  N26_31 
ROOT
HETATM    1  C1  RAL A 600      27.470  -1.906  26.698  1.00 31.33     0.016 A 
HETATM    2  C2  RAL A 600      26.170  -1.540  26.938  1.00 30.47     0.037 A 
HETATM    3  C3  RAL A 600      25.826  -0.284  27.351  1.00 31.66     0.067 A 
HETATM    4  C4  RAL A 600      26.827   0.679  27.522  1.00 33.99     0.056 A 
HETATM    5  C5  RAL A 600      28.123   0.319  27.248  1.00 33.49     0.019 A 
HETATM    6  S6  RAL A 600      29.513   1.201  27.398  1.00 33.96    -0.088 SA
HETATM    7  C7  RAL A 600      30.599   0.024  26.864  1.00 34.48     0.031 A 
HETATM    8  C14 RAL A 600      28.455  -1.002  26.835  1.00 31.87    -0.003 A 
HETATM    9  C15 RAL A 600      29.887  -1.174  26.642  1.00 33.10     0.044 A 
ENDROOT
BRANCH   9  10
HETATM   10  C16 RAL A 600      30.445  -2.383  26.275  1.00 36.94     0.194 C 
HETATM   11  O16 RAL A 600      30.120  -3.410  26.883  1.00 40.67    -0.287 OA
BRANCH  10  12
HETATM   12  C17 RAL A 600      31.430  -2.508  25.194  1.00 36.96     0.015 A 
HETATM   13  C18 RAL A 600      31.360  -1.694  24.081  1.00 34.73     0.018 A 
HETATM   14  C19 RAL A 600      32.262  -1.796  23.040  1.00 34.67     0.037 A 
HETATM   15  C20 RAL A 600      33.254  -2.773  23.106  1.00 37.20     0.068 A 
HETATM   16  C21 RAL A 600      33.338  -3.589  24.220  1.00 40.93     0.037 A 
HETATM   17  C22 RAL A 600      32.437  -3.447  25.262  1.00 39.84     0.018 A 
BRANCH  15  18
HETATM   18  O23 RAL A 600      34.234  -3.066  22.205  1.00 36.45    -0.349 OA
BRANCH  18  19
HETATM   19  C24 RAL A 600      34.026  -2.621  20.874  1.00 38.03     0.206 C 
BRANCH  19  20
HETATM   20  C25 RAL A 600      33.389  -3.709  20.051  1.00 43.08     0.299 C 
BRANCH  20  21
HETATM   21  N26 RAL A 600      32.047  -3.777  19.505  1.00 46.61     0.090 N 
HETATM   22  C27 RAL A 600      31.880  -2.694  18.516  1.00 47.65     0.272 C 
HETATM   23  C28 RAL A 600      30.543  -2.750  17.751  1.00 48.95     0.030 C 
HETATM   24  C29 RAL A 600      29.428  -2.579  18.796  1.00 50.06     0.003 C 
HETATM   25  C30 RAL A 600      29.556  -3.849  19.692  1.00 50.91     0.030 C 
HETATM   26  C31 RAL A 600      30.900  -3.742  20.433  1.00 50.67     0.272 C 
ENDBRANCH  20  21
ENDBRANCH  19  20
ENDBRANCH  18  19
ENDBRANCH  15  18
ENDBRANCH  10  12
ENDBRANCH   9  10
BRANCH   7  27
HETATM   27  C8  RAL A 600      32.078   0.208  26.855  1.00 35.62    -0.018 A 
HETATM   28  C9  RAL A 600      32.534   1.286  26.121  1.00 35.20     0.015 A 
HETATM   29  C10 RAL A 600      33.890   1.568  26.140  1.00 38.32     0.037 A 
HETATM   30  C11 RAL A 600      34.781   0.777  26.836  1.00 39.44     0.065 A 
HETATM   31  C12 RAL A 600      34.319  -0.271  27.605  1.00 36.17     0.037 A 
HETATM   32  C13 RAL A 600      32.956  -0.536  27.594  1.00 34.51     0.015 A 
BRANCH  30  33
HETATM   33  O11 RAL A 600      36.128   1.142  26.800  1.00 46.17    -0.361 OA
ATOM     34  H11 RAL A 600      36.387   1.794  26.158  1.00  0.00     0.217 HD
ENDBRANCH  30  33
ENDBRANCH   7  27
BRANCH   3  35
HETATM   35  O3  RAL A 600      24.487  -0.037  27.527  1.00 32.81    -0.361 OA
ATOM     36  H3  RAL A 600      24.074   0.547  26.902  1.00  0.00     0.217 HD
ENDBRANCH   3  35
TORSDOF 9
