REMARK  9 active torsions:
REMARK  status: ('A' for Active; 'I' for Inactive)
REMARK    1  A    between atoms: C3_3  and  O3_4 
REMARK    2  A    between atoms: C7_9  and  C8_10 
REMARK    3  A    between atoms: C11_13  and  O11_14 
REMARK    4  A    between atoms: C15_19  and  C16_20 
REMARK    5  A    between atoms: C16_20  and  C17_22 
REMARK    6  A    between atoms: C20_25  and  O23_28 
REMARK    7  A    between atoms: O23_28  and  C24_29 
REMARK    8  A    between atoms: C24_29  and  C25_30 
REMARK    9  A    between atoms: C25_30  and  N26_31 
ROOT
HETATM    1  C1  RAL A 600      28.851  -2.624  26.384  1.00 31.33     0.016 A 
HETATM    2  C2  RAL A 600      27.486  -2.569  26.503  1.00 30.47     0.037 A 
HETATM    3  C3  RAL A 600      26.833  -1.457  26.956  1.00 31.66     0.067 A 
HETATM    4  C4  RAL A 600      27.573  -0.320  27.299  1.00 33.99     0.056 A 
HETATM    5  C5  RAL A 600      28.937  -0.367  27.146  1.00 33.49     0.019 A 
HETATM    6  S6  RAL A 600      30.075   0.776  27.505  1.00 33.96    -0.088 SA
HETATM    7  C7  RAL A 600      31.441  -0.088  27.018  1.00 34.48     0.031 A 
HETATM    8  C14 RAL A 600      29.592  -1.545  26.687  1.00 31.87    -0.003 A 
HETATM    9  C15 RAL A 600      31.038  -1.387  26.642  1.00 33.10     0.044 A 
ENDROOT
BRANCH   9  10
HETATM   10  C16 RAL A 600      31.884  -2.411  26.261  1.00 36.94     0.194 C 
HETATM   11  O16 RAL A 600      32.457  -3.079  27.130  1.00 40.67    -0.287 OA
BRANCH  10  12
HETATM   12  C17 RAL A 600      32.150  -2.740  24.856  1.00 36.96     0.015 A 
HETATM   13  C18 RAL A 600      31.558  -2.018  23.840  1.00 34.73     0.018 A 
HETATM   14  C19 RAL A 600      31.776  -2.311  22.507  1.00 34.67     0.037 A 
HETATM   15  C20 RAL A 600      32.597  -3.390  22.185  1.00 37.20     0.068 A 
HETATM   16  C21 RAL A 600      33.202  -4.116  23.195  1.00 40.93     0.037 A 
HETATM   17  C22 RAL A 600      32.988  -3.783  24.522  1.00 39.84     0.018 A 
BRANCH  15  18
HETATM   18  O23 RAL A 600      32.944  -3.870  20.957  1.00 36.45    -0.349 OA
BRANCH  18  19
HETATM   19  C24 RAL A 600      34.288  -4.300  20.800  1.00 38.03     0.206 C 
BRANCH  19  20
HETATM   20  C25 RAL A 600      35.230  -3.133  20.931  1.00 43.08     0.299 C 
BRANCH  20  21
HETATM   21  N26 RAL A 600      35.680  -2.202  19.914  1.00 46.61     0.090 N 
HETATM   22  C27 RAL A 600      37.118  -1.933  20.119  1.00 47.65     0.272 C 
HETATM   23  C28 RAL A 600      37.754  -1.072  19.008  1.00 48.95     0.030 C 
HETATM   24  C29 RAL A 600      37.034   0.286  19.034  1.00 50.06     0.003 C 
HETATM   25  C30 RAL A 600      35.567  -0.059  18.632  1.00 50.91     0.030 C 
HETATM   26  C31 RAL A 600      34.980  -0.911  19.771  1.00 50.67     0.272 C 
ENDBRANCH  20  21
ENDBRANCH  19  20
ENDBRANCH  18  19
ENDBRANCH  15  18
ENDBRANCH  10  12
ENDBRANCH   9  10
BRANCH   7  27
HETATM   27  C8  RAL A 600      32.836   0.410  27.184  1.00 35.62    -0.018 A 
HETATM   28  C9  RAL A 600      33.428   0.899  26.036  1.00 35.20     0.015 A 
HETATM   29  C10 RAL A 600      34.692   1.458  26.134  1.00 38.32     0.037 A 
HETATM   30  C11 RAL A 600      35.372   1.495  27.335  1.00 39.44     0.065 A 
HETATM   31  C12 RAL A 600      34.761   1.048  28.489  1.00 36.17     0.037 A 
HETATM   32  C13 RAL A 600      33.487   0.505  28.383  1.00 34.51     0.015 A 
BRANCH  30  33
HETATM   33  O11 RAL A 600      36.639   2.082  27.337  1.00 46.17    -0.361 OA
ATOM     34  H11 RAL A 600      37.066   2.201  26.497  1.00  0.00     0.217 HD
ENDBRANCH  30  33
ENDBRANCH   7  27
BRANCH   3  35
HETATM   35  O3  RAL A 600      25.462  -1.520  27.000  1.00 32.81    -0.361 OA
ATOM     36  H3  RAL A 600      25.050  -2.217  26.503  1.00  0.00     0.217 HD
ENDBRANCH   3  35
TORSDOF 9
