REMARK  9 active torsions:
REMARK  status: ('A' for Active; 'I' for Inactive)
REMARK    1  A    between atoms: C3_3  and  O3_4 
REMARK    2  A    between atoms: C7_9  and  C8_10 
REMARK    3  A    between atoms: C11_13  and  O11_14 
REMARK    4  A    between atoms: C15_19  and  C16_20 
REMARK    5  A    between atoms: C16_20  and  C17_22 
REMARK    6  A    between atoms: C20_25  and  O23_28 
REMARK    7  A    between atoms: O23_28  and  C24_29 
REMARK    8  A    between atoms: C24_29  and  C25_30 
REMARK    9  A    between atoms: C25_30  and  N26_31 
ROOT
HETATM    1  C1  RAL A 600      29.138  -2.604  26.434  1.00 31.33     0.016 A 
HETATM    2  C2  RAL A 600      27.768  -2.559  26.476  1.00 30.47     0.037 A 
HETATM    3  C3  RAL A 600      27.084  -1.469  26.935  1.00 31.66     0.067 A 
HETATM    4  C4  RAL A 600      27.797  -0.343  27.365  1.00 33.99     0.056 A 
HETATM    5  C5  RAL A 600      29.167  -0.380  27.289  1.00 33.49     0.019 A 
HETATM    6  S6  RAL A 600      30.276   0.752  27.758  1.00 33.96    -0.088 SA
HETATM    7  C7  RAL A 600      31.673  -0.087  27.317  1.00 34.48     0.031 A 
HETATM    8  C14 RAL A 600      29.855  -1.536  26.822  1.00 31.87    -0.003 A 
HETATM    9  C15 RAL A 600      31.299  -1.371  26.866  1.00 33.10     0.044 A 
ENDROOT
BRANCH   9  10
HETATM   10  C16 RAL A 600      32.172  -2.376  26.494  1.00 36.94     0.194 C 
HETATM   11  O16 RAL A 600      32.755  -3.027  27.369  1.00 40.67    -0.287 OA
BRANCH  10  12
HETATM   12  C17 RAL A 600      32.455  -2.703  25.092  1.00 36.96     0.015 A 
HETATM   13  C18 RAL A 600      31.995  -1.892  24.074  1.00 34.73     0.018 A 
HETATM   14  C19 RAL A 600      32.232  -2.179  22.743  1.00 34.67     0.037 A 
HETATM   15  C20 RAL A 600      32.932  -3.341  22.424  1.00 37.20     0.068 A 
HETATM   16  C21 RAL A 600      33.404  -4.157  23.436  1.00 40.93     0.037 A 
HETATM   17  C22 RAL A 600      33.176  -3.831  24.763  1.00 39.84     0.018 A 
BRANCH  15  18
HETATM   18  O23 RAL A 600      33.270  -3.832  21.197  1.00 36.45    -0.349 OA
BRANCH  18  19
HETATM   19  C24 RAL A 600      33.637  -2.878  20.212  1.00 38.03     0.206 C 
BRANCH  19  20
HETATM   20  C25 RAL A 600      32.918  -3.158  18.919  1.00 43.08     0.299 C 
BRANCH  20  21
HETATM   21  N26 RAL A 600      31.492  -3.239  18.664  1.00 46.61     0.090 N 
HETATM   22  C27 RAL A 600      31.014  -1.916  18.214  1.00 47.65     0.272 C 
HETATM   23  C28 RAL A 600      29.538  -1.908  17.765  1.00 48.95     0.030 C 
HETATM   24  C29 RAL A 600      28.699  -2.294  18.994  1.00 50.06     0.003 C 
HETATM   25  C30 RAL A 600      29.131  -3.762  19.296  1.00 50.91     0.030 C 
HETATM   26  C31 RAL A 600      30.603  -3.714  19.742  1.00 50.67     0.272 C 
ENDBRANCH  20  21
ENDBRANCH  19  20
ENDBRANCH  18  19
ENDBRANCH  15  18
ENDBRANCH  10  12
ENDBRANCH   9  10
BRANCH   7  27
HETATM   27  C8  RAL A 600      33.053   0.409  27.582  1.00 35.62    -0.018 A 
HETATM   28  C9  RAL A 600      33.747   0.846  26.470  1.00 35.20     0.015 A 
HETATM   29  C10 RAL A 600      35.003   1.401  26.655  1.00 38.32     0.037 A 
HETATM   30  C11 RAL A 600      35.577   1.484  27.908  1.00 39.44     0.065 A 
HETATM   31  C12 RAL A 600      34.864   1.090  29.022  1.00 36.17     0.037 A 
HETATM   32  C13 RAL A 600      33.599   0.550  28.828  1.00 34.51     0.015 A 
BRANCH  30  33
HETATM   33  O11 RAL A 600      36.844   2.063  27.996  1.00 46.17    -0.361 OA
ATOM     34  H11 RAL A 600      37.041   2.566  28.777  1.00  0.00     0.217 HD
ENDBRANCH  30  33
ENDBRANCH   7  27
BRANCH   3  35
HETATM   35  O3  RAL A 600      25.713  -1.538  26.897  1.00 32.81    -0.361 OA
ATOM     36  H3  RAL A 600      25.331  -2.071  26.210  1.00  0.00     0.217 HD
ENDBRANCH   3  35
TORSDOF 9
