REMARK  9 active torsions:
REMARK  status: ('A' for Active; 'I' for Inactive)
REMARK    1  A    between atoms: C3_3  and  O3_4 
REMARK    2  A    between atoms: C7_9  and  C8_10 
REMARK    3  A    between atoms: C11_13  and  O11_14 
REMARK    4  A    between atoms: C15_19  and  C16_20 
REMARK    5  A    between atoms: C16_20  and  C17_22 
REMARK    6  A    between atoms: C20_25  and  O23_28 
REMARK    7  A    between atoms: O23_28  and  C24_29 
REMARK    8  A    between atoms: C24_29  and  C25_30 
REMARK    9  A    between atoms: C25_30  and  N26_31 
ROOT
HETATM    1  C1  RAL A 600      33.727  -0.656  26.697  1.00 31.33     0.016 A 
HETATM    2  C2  RAL A 600      34.855  -0.464  27.454  1.00 30.47     0.037 A 
HETATM    3  C3  RAL A 600      34.803  -0.188  28.791  1.00 31.66     0.067 A 
HETATM    4  C4  RAL A 600      33.558  -0.114  29.427  1.00 33.99     0.056 A 
HETATM    5  C5  RAL A 600      32.433  -0.341  28.674  1.00 33.49     0.019 A 
HETATM    6  S6  RAL A 600      30.842  -0.277  29.115  1.00 33.96    -0.088 SA
HETATM    7  C7  RAL A 600      30.165  -0.677  27.621  1.00 34.48     0.031 A 
HETATM    8  C14 RAL A 600      32.516  -0.610  27.278  1.00 31.87    -0.003 A 
HETATM    9  C15 RAL A 600      31.205  -0.775  26.671  1.00 33.10     0.044 A 
ENDROOT
BRANCH   9  10
HETATM   10  C16 RAL A 600      31.037  -1.009  25.320  1.00 36.94     0.194 C 
HETATM   11  O16 RAL A 600      30.151  -0.402  24.705  1.00 40.67    -0.287 OA
BRANCH  10  12
HETATM   12  C17 RAL A 600      31.860  -1.965  24.571  1.00 36.96     0.015 A 
HETATM   13  C18 RAL A 600      32.336  -3.110  25.177  1.00 34.73     0.018 A 
HETATM   14  C19 RAL A 600      33.126  -4.022  24.505  1.00 34.67     0.037 A 
HETATM   15  C20 RAL A 600      33.474  -3.760  23.181  1.00 37.20     0.068 A 
HETATM   16  C21 RAL A 600      32.996  -2.619  22.561  1.00 40.93     0.037 A 
HETATM   17  C22 RAL A 600      32.184  -1.735  23.250  1.00 39.84     0.018 A 
BRANCH  15  18
HETATM   18  O23 RAL A 600      34.242  -4.499  22.331  1.00 36.45    -0.349 OA
BRANCH  18  19
HETATM   19  C24 RAL A 600      34.430  -3.972  21.026  1.00 38.03     0.206 C 
BRANCH  19  20
HETATM   20  C25 RAL A 600      33.292  -4.379  20.128  1.00 43.08     0.299 C 
BRANCH  20  21
HETATM   21  N26 RAL A 600      32.166  -3.591  19.665  1.00 46.61     0.090 N 
HETATM   22  C27 RAL A 600      30.964  -3.984  20.427  1.00 47.65     0.272 C 
HETATM   23  C28 RAL A 600      29.727  -3.111  20.132  1.00 48.95     0.030 C 
HETATM   24  C29 RAL A 600      29.396  -3.301  18.643  1.00 50.06     0.003 C 
HETATM   25  C30 RAL A 600      30.631  -2.698  17.906  1.00 50.91     0.030 C 
HETATM   26  C31 RAL A 600      31.832  -3.605  18.227  1.00 50.67     0.272 C 
ENDBRANCH  20  21
ENDBRANCH  19  20
ENDBRANCH  18  19
ENDBRANCH  15  18
ENDBRANCH  10  12
ENDBRANCH   9  10
BRANCH   7  27
HETATM   27  C8  RAL A 600      28.698  -0.696  27.357  1.00 35.62    -0.018 A 
HETATM   28  C9  RAL A 600      28.222  -1.849  26.762  1.00 35.20     0.015 A 
HETATM   29  C10 RAL A 600      26.855  -1.971  26.568  1.00 38.32     0.037 A 
HETATM   30  C11 RAL A 600      25.984  -0.958  26.916  1.00 39.44     0.065 A 
HETATM   31  C12 RAL A 600      26.457   0.172  27.551  1.00 36.17     0.037 A 
HETATM   32  C13 RAL A 600      27.827   0.278  27.757  1.00 34.51     0.015 A 
BRANCH  30  33
HETATM   33  O11 RAL A 600      24.624  -1.174  26.685  1.00 46.17    -0.361 OA
ATOM     34  H11 RAL A 600      24.387  -1.908  26.130  1.00  0.00     0.217 HD
ENDBRANCH  30  33
ENDBRANCH   7  27
BRANCH   3  35
HETATM   35  O3  RAL A 600      36.004  -0.047  29.440  1.00 32.81    -0.361 OA
ATOM     36  H3  RAL A 600      36.299  -0.786  29.959  1.00  0.00     0.217 HD
ENDBRANCH   3  35
TORSDOF 9
