REMARK  9 active torsions:
REMARK  status: ('A' for Active; 'I' for Inactive)
REMARK    1  A    between atoms: C3_3  and  O3_4 
REMARK    2  A    between atoms: C7_9  and  C8_10 
REMARK    3  A    between atoms: C11_13  and  O11_14 
REMARK    4  A    between atoms: C15_19  and  C16_20 
REMARK    5  A    between atoms: C16_20  and  C17_22 
REMARK    6  A    between atoms: C20_25  and  O23_28 
REMARK    7  A    between atoms: O23_28  and  C24_29 
REMARK    8  A    between atoms: C24_29  and  C25_30 
REMARK    9  A    between atoms: C25_30  and  N26_31 
ROOT
HETATM    1  C1  RAL A 600      28.839  -2.496  26.458  1.00 31.33     0.016 A 
HETATM    2  C2  RAL A 600      27.468  -2.466  26.503  1.00 30.47     0.037 A 
HETATM    3  C3  RAL A 600      26.771  -1.356  26.892  1.00 31.66     0.067 A 
HETATM    4  C4  RAL A 600      27.471  -0.196  27.244  1.00 33.99     0.056 A 
HETATM    5  C5  RAL A 600      28.842  -0.220  27.165  1.00 33.49     0.019 A 
HETATM    6  S6  RAL A 600      29.938   0.954  27.554  1.00 33.96    -0.088 SA
HETATM    7  C7  RAL A 600      31.344   0.105  27.164  1.00 34.48     0.031 A 
HETATM    8  C14 RAL A 600      29.543  -1.396  26.772  1.00 31.87    -0.003 A 
HETATM    9  C15 RAL A 600      30.985  -1.210  26.801  1.00 33.10     0.044 A 
ENDROOT
BRANCH   9  10
HETATM   10  C16 RAL A 600      31.869  -2.226  26.492  1.00 36.94     0.194 C 
HETATM   11  O16 RAL A 600      32.468  -2.808  27.405  1.00 40.67    -0.287 OA
BRANCH  10  12
HETATM   12  C17 RAL A 600      32.148  -2.645  25.114  1.00 36.96     0.015 A 
HETATM   13  C18 RAL A 600      31.620  -1.948  24.046  1.00 34.73     0.018 A 
HETATM   14  C19 RAL A 600      31.850  -2.325  22.737  1.00 34.67     0.037 A 
HETATM   15  C20 RAL A 600      32.617  -3.463  22.493  1.00 37.20     0.068 A 
HETATM   16  C21 RAL A 600      33.158  -4.165  23.555  1.00 40.93     0.037 A 
HETATM   17  C22 RAL A 600      32.933  -3.749  24.857  1.00 39.84     0.018 A 
BRANCH  15  18
HETATM   18  O23 RAL A 600      32.964  -4.028  21.301  1.00 36.45    -0.349 OA
BRANCH  18  19
HETATM   19  C24 RAL A 600      33.679  -3.203  20.393  1.00 38.03     0.206 C 
BRANCH  19  20
HETATM   20  C25 RAL A 600      33.086  -3.308  19.013  1.00 43.08     0.299 C 
BRANCH  20  21
HETATM   21  N26 RAL A 600      31.691  -3.340  18.617  1.00 46.61     0.090 N 
HETATM   22  C27 RAL A 600      31.314  -2.012  18.092  1.00 47.65     0.272 C 
HETATM   23  C28 RAL A 600      29.893  -1.960  17.496  1.00 48.95     0.030 C 
HETATM   24  C29 RAL A 600      28.920  -2.282  18.641  1.00 50.06     0.003 C 
HETATM   25  C30 RAL A 600      29.259  -3.757  19.017  1.00 50.91     0.030 C 
HETATM   26  C31 RAL A 600      30.679  -3.754  19.609  1.00 50.67     0.272 C 
ENDBRANCH  20  21
ENDBRANCH  19  20
ENDBRANCH  18  19
ENDBRANCH  15  18
ENDBRANCH  10  12
ENDBRANCH   9  10
BRANCH   7  27
HETATM   27  C8  RAL A 600      32.719   0.635  27.391  1.00 35.62    -0.018 A 
HETATM   28  C9  RAL A 600      33.182   0.535  28.688  1.00 35.20     0.015 A 
HETATM   29  C10 RAL A 600      34.484   0.928  28.953  1.00 38.32     0.037 A 
HETATM   30  C11 RAL A 600      35.296   1.446  27.964  1.00 39.44     0.065 A 
HETATM   31  C12 RAL A 600      34.847   1.502  26.661  1.00 36.17     0.037 A 
HETATM   32  C13 RAL A 600      33.546   1.090  26.401  1.00 34.51     0.015 A 
BRANCH  30  33
HETATM   33  O11 RAL A 600      36.594   1.811  28.325  1.00 46.17    -0.361 OA
ATOM     34  H11 RAL A 600      36.707   2.647  28.762  1.00  0.00     0.217 HD
ENDBRANCH  30  33
ENDBRANCH   7  27
BRANCH   3  35
HETATM   35  O3  RAL A 600      25.402  -1.445  26.864  1.00 32.81    -0.361 OA
ATOM     36  H3  RAL A 600      25.033  -2.274  26.581  1.00  0.00     0.217 HD
ENDBRANCH   3  35
TORSDOF 9
