REMARK  9 active torsions:
REMARK  status: ('A' for Active; 'I' for Inactive)
REMARK    1  A    between atoms: C3_3  and  O3_4 
REMARK    2  A    between atoms: C7_9  and  C8_10 
REMARK    3  A    between atoms: C11_13  and  O11_14 
REMARK    4  A    between atoms: C15_19  and  C16_20 
REMARK    5  A    between atoms: C16_20  and  C17_22 
REMARK    6  A    between atoms: C20_25  and  O23_28 
REMARK    7  A    between atoms: O23_28  and  C24_29 
REMARK    8  A    between atoms: C24_29  and  C25_30 
REMARK    9  A    between atoms: C25_30  and  N26_31 
ROOT
HETATM    1  C1  RAL A 600      28.227  -2.373  26.432  1.00 31.33     0.016 A 
HETATM    2  C2  RAL A 600      26.860  -2.299  26.514  1.00 30.47     0.037 A 
HETATM    3  C3  RAL A 600      26.203  -1.132  26.789  1.00 31.66     0.067 A 
HETATM    4  C4  RAL A 600      26.942   0.042  26.977  1.00 33.99     0.056 A 
HETATM    5  C5  RAL A 600      28.309  -0.030  26.859  1.00 33.49     0.019 A 
HETATM    6  S6  RAL A 600      29.445   1.152  27.071  1.00 33.96    -0.088 SA
HETATM    7  C7  RAL A 600      30.816   0.223  26.742  1.00 34.48     0.031 A 
HETATM    8  C14 RAL A 600      28.968  -1.263  26.589  1.00 31.87    -0.003 A 
HETATM    9  C15 RAL A 600      30.414  -1.115  26.550  1.00 33.10     0.044 A 
ENDROOT
BRANCH   9  10
HETATM   10  C16 RAL A 600      31.262  -2.185  26.338  1.00 36.94     0.194 C 
HETATM   11  O16 RAL A 600      31.466  -2.989  27.257  1.00 40.67    -0.287 OA
BRANCH  10  12
HETATM   12  C17 RAL A 600      31.954  -2.411  25.065  1.00 36.96     0.015 A 
HETATM   13  C18 RAL A 600      31.798  -1.529  24.014  1.00 34.73     0.018 A 
HETATM   14  C19 RAL A 600      32.424  -1.720  22.797  1.00 34.67     0.037 A 
HETATM   15  C20 RAL A 600      33.212  -2.855  22.620  1.00 37.20     0.068 A 
HETATM   16  C21 RAL A 600      33.382  -3.741  23.669  1.00 40.93     0.037 A 
HETATM   17  C22 RAL A 600      32.765  -3.511  24.887  1.00 39.84     0.018 A 
BRANCH  15  18
HETATM   18  O23 RAL A 600      33.909  -3.256  21.518  1.00 36.45    -0.349 OA
BRANCH  18  19
HETATM   19  C24 RAL A 600      33.499  -4.475  20.917  1.00 38.03     0.206 C 
BRANCH  19  20
HETATM   20  C25 RAL A 600      31.999  -4.529  20.813  1.00 43.08     0.299 C 
BRANCH  20  21
HETATM   21  N26 RAL A 600      31.140  -4.086  19.732  1.00 46.61     0.090 N 
HETATM   22  C27 RAL A 600      31.957  -3.346  18.748  1.00 47.65     0.272 C 
HETATM   23  C28 RAL A 600      31.187  -2.951  17.472  1.00 48.95     0.030 C 
HETATM   24  C29 RAL A 600      30.053  -2.010  17.912  1.00 50.06     0.003 C 
HETATM   25  C30 RAL A 600      29.140  -2.913  18.798  1.00 50.91     0.030 C 
HETATM   26  C31 RAL A 600      29.950  -3.274  20.055  1.00 50.67     0.272 C 
ENDBRANCH  20  21
ENDBRANCH  19  20
ENDBRANCH  18  19
ENDBRANCH  15  18
ENDBRANCH  10  12
ENDBRANCH   9  10
BRANCH   7  27
HETATM   27  C8  RAL A 600      32.210   0.738  26.861  1.00 35.62    -0.018 A 
HETATM   28  C9  RAL A 600      33.027   0.032  27.722  1.00 35.20     0.015 A 
HETATM   29  C10 RAL A 600      34.359   0.402  27.815  1.00 38.32     0.037 A 
HETATM   30  C11 RAL A 600      34.862   1.472  27.102  1.00 39.44     0.065 A 
HETATM   31  C12 RAL A 600      34.056   2.146  26.208  1.00 36.17     0.037 A 
HETATM   32  C13 RAL A 600      32.726   1.757  26.109  1.00 34.51     0.015 A 
BRANCH  30  33
HETATM   33  O11 RAL A 600      36.218   1.767  27.258  1.00 46.17    -0.361 OA
ATOM     34  H11 RAL A 600      36.742   1.840  26.469  1.00  0.00     0.217 HD
ENDBRANCH  30  33
ENDBRANCH   7  27
BRANCH   3  35
HETATM   35  O3  RAL A 600      24.832  -1.186  26.814  1.00 32.81    -0.361 OA
ATOM     36  H3  RAL A 600      24.424  -1.915  26.363  1.00  0.00     0.217 HD
ENDBRANCH   3  35
TORSDOF 9
