REMARK  9 active torsions:
REMARK  status: ('A' for Active; 'I' for Inactive)
REMARK    1  A    between atoms: C3_3  and  O3_4 
REMARK    2  A    between atoms: C7_9  and  C8_10 
REMARK    3  A    between atoms: C11_13  and  O11_14 
REMARK    4  A    between atoms: C15_19  and  C16_20 
REMARK    5  A    between atoms: C16_20  and  C17_22 
REMARK    6  A    between atoms: C20_25  and  O23_28 
REMARK    7  A    between atoms: O23_28  and  C24_29 
REMARK    8  A    between atoms: C24_29  and  C25_30 
REMARK    9  A    between atoms: C25_30  and  N26_31 
ROOT
HETATM    1  C1  RAL A 600      33.683  -0.398  26.746  1.00 31.33     0.016 A 
HETATM    2  C2  RAL A 600      34.822  -0.114  27.454  1.00 30.47     0.037 A 
HETATM    3  C3  RAL A 600      34.814   0.086  28.806  1.00 31.66     0.067 A 
HETATM    4  C4  RAL A 600      33.607  -0.018  29.507  1.00 33.99     0.056 A 
HETATM    5  C5  RAL A 600      32.475  -0.337  28.799  1.00 33.49     0.019 A 
HETATM    6  S6  RAL A 600      30.914  -0.481  29.322  1.00 33.96    -0.088 SA
HETATM    7  C7  RAL A 600      30.204  -0.881  27.843  1.00 34.48     0.031 A 
HETATM    8  C14 RAL A 600      32.509  -0.523  27.388  1.00 31.87    -0.003 A 
HETATM    9  C15 RAL A 600      31.193  -0.809  26.839  1.00 33.10     0.044 A 
ENDROOT
BRANCH   9  10
HETATM   10  C16 RAL A 600      30.977  -0.992  25.487  1.00 36.94     0.194 C 
HETATM   11  O16 RAL A 600      30.034  -0.408  24.939  1.00 40.67    -0.287 OA
BRANCH  10  12
HETATM   12  C17 RAL A 600      31.814  -1.869  24.660  1.00 36.96     0.015 A 
HETATM   13  C18 RAL A 600      32.280  -3.070  25.156  1.00 34.73     0.018 A 
HETATM   14  C19 RAL A 600      33.082  -3.911  24.410  1.00 34.67     0.037 A 
HETATM   15  C20 RAL A 600      33.454  -3.516  23.126  1.00 37.20     0.068 A 
HETATM   16  C21 RAL A 600      32.987  -2.318  22.615  1.00 40.93     0.037 A 
HETATM   17  C22 RAL A 600      32.162  -1.507  23.376  1.00 39.84     0.018 A 
BRANCH  15  18
HETATM   18  O23 RAL A 600      34.238  -4.167  22.220  1.00 36.45    -0.349 OA
BRANCH  18  19
HETATM   19  C24 RAL A 600      33.571  -5.014  21.296  1.00 38.03     0.206 C 
BRANCH  19  20
HETATM   20  C25 RAL A 600      32.121  -4.625  21.182  1.00 43.08     0.299 C 
BRANCH  20  21
HETATM   21  N26 RAL A 600      31.505  -3.633  20.322  1.00 46.61     0.090 N 
HETATM   22  C27 RAL A 600      30.085  -3.988  20.128  1.00 47.65     0.272 C 
HETATM   23  C28 RAL A 600      29.278  -2.927  19.353  1.00 48.95     0.030 C 
HETATM   24  C29 RAL A 600      29.910  -2.824  17.955  1.00 50.06     0.003 C 
HETATM   25  C30 RAL A 600      31.343  -2.273  18.232  1.00 50.91     0.030 C 
HETATM   26  C31 RAL A 600      32.104  -3.367  19.000  1.00 50.67     0.272 C 
ENDBRANCH  20  21
ENDBRANCH  19  20
ENDBRANCH  18  19
ENDBRANCH  15  18
ENDBRANCH  10  12
ENDBRANCH   9  10
BRANCH   7  27
HETATM   27  C8  RAL A 600      28.736  -1.059  27.652  1.00 35.62    -0.018 A 
HETATM   28  C9  RAL A 600      28.015   0.110  27.505  1.00 35.20     0.015 A 
HETATM   29  C10 RAL A 600      26.659   0.017  27.237  1.00 38.32     0.037 A 
HETATM   30  C11 RAL A 600      26.023  -1.206  27.157  1.00 39.44     0.065 A 
HETATM   31  C12 RAL A 600      26.753  -2.372  27.259  1.00 36.17     0.037 A 
HETATM   32  C13 RAL A 600      28.115  -2.269  27.511  1.00 34.51     0.015 A 
BRANCH  30  33
HETATM   33  O11 RAL A 600      24.655  -1.200  26.879  1.00 46.17    -0.361 OA
ATOM     34  H11 RAL A 600      24.321  -1.886  26.313  1.00  0.00     0.217 HD
ENDBRANCH  30  33
ENDBRANCH   7  27
BRANCH   3  35
HETATM   35  O3  RAL A 600      36.026   0.333  29.401  1.00 32.81    -0.361 OA
ATOM     36  H3  RAL A 600      36.443  -0.398  29.842  1.00  0.00     0.217 HD
ENDBRANCH   3  35
TORSDOF 9
