REMARK  9 active torsions:
REMARK  status: ('A' for Active; 'I' for Inactive)
REMARK    1  A    between atoms: C3_3  and  O3_4 
REMARK    2  A    between atoms: C7_9  and  C8_10 
REMARK    3  A    between atoms: C11_13  and  O11_14 
REMARK    4  A    between atoms: C15_19  and  C16_20 
REMARK    5  A    between atoms: C16_20  and  C17_22 
REMARK    6  A    between atoms: C20_25  and  O23_28 
REMARK    7  A    between atoms: O23_28  and  C24_29 
REMARK    8  A    between atoms: C24_29  and  C25_30 
REMARK    9  A    between atoms: C25_30  and  N26_31 
ROOT
HETATM    1  C1  RAL A 600      69.571  36.223  71.917  1.00 31.33     0.016 A 
HETATM    2  C2  RAL A 600      69.816  37.448  71.352  1.00 30.47     0.037 A 
HETATM    3  C3  RAL A 600      69.083  37.933  70.305  1.00 31.66     0.067 A 
HETATM    4  C4  RAL A 600      68.029  37.167  69.794  1.00 33.99     0.056 A 
HETATM    5  C5  RAL A 600      67.765  35.956  70.385  1.00 33.49     0.019 A 
HETATM    6  S6  RAL A 600      66.638  34.815  69.986  1.00 33.96    -0.088 SA
HETATM    7  C7  RAL A 600      67.001  33.691  71.192  1.00 34.48     0.031 A 
HETATM    8  C14 RAL A 600      68.556  35.468  71.464  1.00 31.87    -0.003 A 
HETATM    9  C15 RAL A 600      68.128  34.150  71.906  1.00 33.10     0.044 A 
ENDROOT
BRANCH   9  10
HETATM   10  C16 RAL A 600      68.771  33.463  72.918  1.00 36.94     0.194 C 
HETATM   11  O16 RAL A 600      69.368  32.412  72.653  1.00 40.67    -0.287 OA
BRANCH  10  12
HETATM   12  C17 RAL A 600      68.768  33.917  74.313  1.00 36.96     0.015 A 
HETATM   13  C18 RAL A 600      69.621  33.351  75.239  1.00 34.73     0.018 A 
HETATM   14  C19 RAL A 600      69.633  33.745  76.563  1.00 34.67     0.037 A 
HETATM   15  C20 RAL A 600      68.733  34.725  76.978  1.00 37.20     0.068 A 
HETATM   16  C21 RAL A 600      67.879  35.305  76.057  1.00 40.93     0.037 A 
HETATM   17  C22 RAL A 600      67.907  34.910  74.730  1.00 39.84     0.018 A 
BRANCH  15  18
HETATM   18  O23 RAL A 600      68.555  35.259  78.220  1.00 36.45    -0.349 OA
BRANCH  18  19
HETATM   19  C24 RAL A 600      69.461  34.837  79.228  1.00 38.03     0.206 C 
BRANCH  19  20
HETATM   20  C25 RAL A 600      69.311  35.692  80.458  1.00 43.08     0.299 C 
BRANCH  20  21
HETATM   21  N26 RAL A 600      69.023  37.110  80.557  1.00 46.61     0.090 N 
HETATM   22  C27 RAL A 600      68.720  37.437  81.965  1.00 47.65     0.272 C 
HETATM   23  C28 RAL A 600      68.544  38.946  82.229  1.00 48.95     0.030 C 
HETATM   24  C29 RAL A 600      67.338  39.404  81.393  1.00 50.06     0.003 C 
HETATM   25  C30 RAL A 600      67.804  39.197  79.919  1.00 50.91     0.030 C 
HETATM   26  C31 RAL A 600      67.960  37.681  79.707  1.00 50.67     0.272 C 
ENDBRANCH  20  21
ENDBRANCH  19  20
ENDBRANCH  18  19
ENDBRANCH  15  18
ENDBRANCH  10  12
ENDBRANCH   9  10
BRANCH   7  27
HETATM   27  C8  RAL A 600      66.347  32.356  71.301  1.00 35.62    -0.018 A 
HETATM   28  C9  RAL A 600      66.087  31.727  70.099  1.00 35.20     0.015 A 
HETATM   29  C10 RAL A 600      65.560  30.446  70.128  1.00 38.32     0.037 A 
HETATM   30  C11 RAL A 600      65.259  29.817  71.320  1.00 39.44     0.065 A 
HETATM   31  C12 RAL A 600      65.562  30.428  72.519  1.00 36.17     0.037 A 
HETATM   32  C13 RAL A 600      66.106  31.706  72.480  1.00 34.51     0.015 A 
BRANCH  30  33
HETATM   33  O11 RAL A 600      64.735  28.525  71.249  1.00 46.17    -0.361 OA
ATOM     34  H11 RAL A 600      64.528  28.092  72.069  1.00  0.00     0.217 HD
ENDBRANCH  30  33
ENDBRANCH   7  27
BRANCH   3  35
HETATM   35  O3  RAL A 600      69.410  39.186  69.850  1.00 32.81    -0.361 OA
ATOM     36  H3  RAL A 600      68.901  39.523  69.122  1.00  0.00     0.217 HD
ENDBRANCH   3  35
TORSDOF 9
