4PP.pdb
  rDOCK(R)          3D
libRbt.so/2013.1/901 2013/11/27
 34 36  0  0  0  0  0  0  0  0999 V2000
    2.9436    2.1838   22.7325 C   0  0  0  0  0  0
    2.1103    2.6184   21.9254 O   0  0  0  0  0  0
    2.5325    1.5885   23.8944 O   0  0  0  0  0  0
   10.4534   -1.3628   17.3420 N   0  0  0  0  0  0
   10.9796   -0.0837   17.6096 C   0  0  0  0  0  0
   10.2943    0.7829   18.4861 C   0  0  0  0  0  0
    9.0879    0.3736   19.0908 C   0  0  0  0  0  0
    8.5614   -0.9204   18.8187 C   0  0  0  0  0  0
    9.2463   -1.7795   17.9474 C   0  0  0  0  0  0
    8.4004    1.3226   20.0060 N   0  0  0  0  0  0
    4.4444    2.3139   22.4031 C   0  0  0  0  0  0
    4.8237    1.4284   21.2135 C   0  0  0  0  0  0
    6.3288    1.1898   21.2846 C   0  0  0  0  0  0
    6.9272    1.2698   19.8847 C   0  0  0  0  0  0
    9.8150    8.5329   25.2543 N   0  0  0  0  0  0
    9.1555    7.7221   27.2871 N   0  0  0  0  0  0
    8.8615    8.1040   26.0603 C   0  0  0  0  0  0
    5.4099    6.5064   21.5480 C   0  0  0  0  0  0
    5.1084    5.6052   20.4901 C   0  0  0  0  0  0
    4.7965    4.2518   20.7809 C   0  0  0  0  0  0
    4.7848    3.7878   22.1289 C   0  0  0  0  0  0
    5.0896    4.6907   23.1994 C   0  0  0  0  0  0
    5.4026    6.0542   22.9111 C   0  0  0  0  0  0
    5.0433    8.7600   25.7080 C   0  0  0  0  0  0
    4.7090    7.8597   24.6545 C   0  0  0  0  0  0
    5.7268    7.0449   24.0633 C   0  0  0  0  0  0
    7.0626    7.1432   24.5336 C   0  0  0  0  0  0
    7.3988    8.0348   25.5819 C   0  0  0  0  0  0
    6.3903    8.8474   26.1720 C   0  0  0  0  0  0
    2.1046    2.0966   24.5552 H   0  0  0  0  0  0
    8.8750    1.9219   20.6264 H   0  0  0  0  0  0
   10.7463    8.5727   25.5710 H   0  0  0  0  0  0
   10.0864    7.7614   27.6051 H   0  0  0  0  0  0
    8.4442    7.3976   27.8854 H   0  0  0  0  0  0
  1  2  2  0  0  0
  1  3  1  0  0  0
  1 11  1  0  0  0
  3 30  1  0  0  0
  4  5  2  0  0  0
  4  9  1  0  0  0
  5  6  1  0  0  0
  6  7  2  0  0  0
  7  8  1  0  0  0
  7 10  1  0  0  0
  8  9  2  0  0  0
 10 14  1  0  0  0
 10 31  1  0  0  0
 11 12  1  0  0  0
 11 21  1  0  0  0
 12 13  1  0  0  0
 13 14  1  0  0  0
 15 17  2  0  0  0
 15 32  1  0  0  0
 16 17  1  0  0  0
 16 33  1  0  0  0
 16 34  1  0  0  0
 17 28  1  0  0  0
 18 19  2  0  0  0
 18 23  1  0  0  0
 19 20  1  0  0  0
 20 21  2  0  0  0
 21 22  1  0  0  0
 22 23  2  0  0  0
 23 26  1  0  0  0
 24 25  2  0  0  0
 24 29  1  0  0  0
 25 26  1  0  0  0
 26 27  2  0  0  0
 27 28  1  0  0  0
 28 29  2  0  0  0
M  END
>  <CHROM.0>
-48.71247582,-60.67265851,15.11928362,-171.01106511,169.14196109,-69.13952650
-103.93391493,-26.20444882,147.56155253

>  <CHROM.1>
-67.20497831,-67.61493969,142.45482963,132.46511328,-158.68422352,-95.28584945
-139.17108901,168.18891012,64.59978770,86.50390628,6.59930041,3.87944902
22.19726854,1.37841939,-0.15413273,-2.48347789

>  <FORMUL>
      4PP    C23 H24 N4 O2

>  <HET>
 4PP  C 500      29

>  <HETNAM>
     4PP (2S)-(3'-AMIDINO-3-BIPHENYL)-5-(4-PYRIDYLAMINO)PENTANOI
   2 4PP C ACID

>  <Name>
4PP.pdb

>  <RI>
2.90962e+07

>  <Rbt.Current_Directory>
/home/malgorzata/Desktop/rDOCK_IFD/Wyniki/7_factor_Xa

>  <Rbt.Executable>
rbdock ($Id: //depot/dev/client3/rdock/2013.1/src/exe/rbdock.cxx#4 $)

>  <Rbt.Library>
libRbt.so (2013.1, Build901 2013/11/27)

>  <Rbt.Parameter_File>
/home/malgorzata/Desktop/rDock_2013.1_src/data/scripts/soft_docking.prm

>  <Rbt.Receptor>
cavity.prm

>  <SCORE>
-29.524

>  <SCORE.INTER>
-26.7609

>  <SCORE.INTER.CONST>
1

>  <SCORE.INTER.POLAR>
-0.708313

>  <SCORE.INTER.REPUL>
0.261979

>  <SCORE.INTER.ROT>
9

>  <SCORE.INTER.VDW>
-40.0625

>  <SCORE.INTER.norm>
-0.92279

>  <SCORE.INTRA>
4.38919

>  <SCORE.INTRA.DIHEDRAL>
31.7029

>  <SCORE.INTRA.DIHEDRAL.0>
20.1331

>  <SCORE.INTRA.POLAR>
0

>  <SCORE.INTRA.POLAR.0>
0

>  <SCORE.INTRA.REPUL>
0

>  <SCORE.INTRA.REPUL.0>
0

>  <SCORE.INTRA.VDW>
-1.9514

>  <SCORE.INTRA.VDW.0>
0.0644272

>  <SCORE.INTRA.norm>
0.151351

>  <SCORE.RESTR>
0.0604626

>  <SCORE.RESTR.CAVITY>
0.0604626

>  <SCORE.RESTR.norm>
0.00208492

>  <SCORE.SYSTEM>
-7.21272

>  <SCORE.SYSTEM.CONST>
0

>  <SCORE.SYSTEM.DIHEDRAL>
3.88477

>  <SCORE.SYSTEM.POLAR>
-2.49989

>  <SCORE.SYSTEM.REPUL>
0.657809

>  <SCORE.SYSTEM.VDW>
-3.94454

>  <SCORE.SYSTEM.norm>
-0.248715

>  <SCORE.heavy>
29

>  <SCORE.norm>
-1.01807

$$$$
4PP.pdb
  rDOCK(R)          3D
libRbt.so/2013.1/901 2013/11/27
 34 36  0  0  0  0  0  0  0  0999 V2000
    9.0702    9.1142   20.4505 C   0  0  0  0  0  0
    9.8651    8.5906   19.6576 O   0  0  0  0  0  0
    9.2733   10.3963   20.8844 O   0  0  0  0  0  0
    2.3899    3.2558   19.7923 N   0  0  0  0  0  0
    3.3818    4.1110   19.2734 C   0  0  0  0  0  0
    4.5887    4.2892   19.9809 C   0  0  0  0  0  0
    4.8022    3.6171   21.2021 C   0  0  0  0  0  0
    3.7977    2.7527   21.7212 C   0  0  0  0  0  0
    2.5995    2.5775   21.0142 C   0  0  0  0  0  0
    6.0895    3.8381   21.9128 N   0  0  0  0  0  0
    7.8480    8.3054   20.9298 C   0  0  0  0  0  0
    7.9962    6.8242   20.5731 C   0  0  0  0  0  0
    6.9832    6.0502   21.4109 C   0  0  0  0  0  0
    7.0814    4.5632   21.0894 C   0  0  0  0  0  0
   14.1224    6.1116   26.5381 N   0  0  0  0  0  0
   13.4881    6.8937   24.4862 N   0  0  0  0  0  0
   13.1978    6.6143   25.7411 C   0  0  0  0  0  0
    7.2683    8.8883   25.2384 C   0  0  0  0  0  0
    6.3127    9.3823   24.3085 C   0  0  0  0  0  0
    6.5119    9.1858   22.9174 C   0  0  0  0  0  0
    7.6667    8.4964   22.4444 C   0  0  0  0  0  0
    8.6345    7.9977   23.3764 C   0  0  0  0  0  0
    8.4370    8.1921   24.7777 C   0  0  0  0  0  0
   10.1017    6.9195   28.0765 C   0  0  0  0  0  0
    9.1228    7.4154   27.1665 C   0  0  0  0  0  0
    9.4747    7.6492   25.7987 C   0  0  0  0  0  0
   10.7992    7.3844   25.3621 C   0  0  0  0  0  0
   11.7745    6.8893   26.2624 C   0  0  0  0  0  0
   11.4293    6.6563   27.6233 C   0  0  0  0  0  0
    9.9072   10.9399   20.4593 H   0  0  0  0  0  0
    6.2630    3.5342   22.8330 H   0  0  0  0  0  0
   15.0286    5.9400   26.1939 H   0  0  0  0  0  0
   14.3939    6.7227   24.1406 H   0  0  0  0  0  0
   12.7990    7.2734   23.8943 H   0  0  0  0  0  0
  1  2  2  0  0  0
  1  3  1  0  0  0
  1 11  1  0  0  0
  3 30  1  0  0  0
  4  5  2  0  0  0
  4  9  1  0  0  0
  5  6  1  0  0  0
  6  7  2  0  0  0
  7  8  1  0  0  0
  7 10  1  0  0  0
  8  9  2  0  0  0
 10 14  1  0  0  0
 10 31  1  0  0  0
 11 12  1  0  0  0
 11 21  1  0  0  0
 12 13  1  0  0  0
 13 14  1  0  0  0
 15 17  2  0  0  0
 15 32  1  0  0  0
 16 17  1  0  0  0
 16 33  1  0  0  0
 16 34  1  0  0  0
 17 28  1  0  0  0
 18 19  2  0  0  0
 18 23  1  0  0  0
 19 20  1  0  0  0
 20 21  2  0  0  0
 21 22  1  0  0  0
 22 23  2  0  0  0
 23 26  1  0  0  0
 24 25  2  0  0  0
 24 29  1  0  0  0
 25 26  1  0  0  0
 26 27  2  0  0  0
 27 28  1  0  0  0
 28 29  2  0  0  0
M  END
>  <CHROM.0>
-123.08862322,-60.67265851,-150.13218910,168.43846070,60.91893868,-36.54229702
-35.34304412,56.56040368,108.48743976

>  <CHROM.1>
12.29830260,13.22171163,-10.59445498,94.39420482,163.92701193,113.57462594
179.68321424,-179.94197276,-177.77042912,21.10648430,8.12597932,6.66690418
23.03728737,-0.18238195,-0.68674346,-0.82211171

>  <FORMUL>
      4PP    C23 H24 N4 O2

>  <HET>
 4PP  C 500      29

>  <HETNAM>
     4PP (2S)-(3'-AMIDINO-3-BIPHENYL)-5-(4-PYRIDYLAMINO)PENTANOI
   2 4PP C ACID

>  <Name>
4PP.pdb

>  <RI>
2.90962e+07

>  <Rbt.Current_Directory>
/home/malgorzata/Desktop/rDOCK_IFD/Wyniki/7_factor_Xa

>  <Rbt.Executable>
rbdock ($Id: //depot/dev/client3/rdock/2013.1/src/exe/rbdock.cxx#4 $)

>  <Rbt.Library>
libRbt.so (2013.1, Build901 2013/11/27)

>  <Rbt.Parameter_File>
/home/malgorzata/Desktop/rDock_2013.1_src/data/scripts/soft_docking.prm

>  <Rbt.Receptor>
cavity.prm

>  <SCORE>
-30.9366

>  <SCORE.INTER>
-29.8859

>  <SCORE.INTER.CONST>
1

>  <SCORE.INTER.POLAR>
-2.56575

>  <SCORE.INTER.REPUL>
0.86603

>  <SCORE.INTER.ROT>
9

>  <SCORE.INTER.VDW>
-39.8925

>  <SCORE.INTER.norm>
-1.03055

>  <SCORE.INTRA>
0.0489495

>  <SCORE.INTRA.DIHEDRAL>
-12.9951

>  <SCORE.INTRA.DIHEDRAL.0>
20.1331

>  <SCORE.INTRA.POLAR>
0

>  <SCORE.INTRA.POLAR.0>
0

>  <SCORE.INTRA.REPUL>
0

>  <SCORE.INTRA.REPUL.0>
0

>  <SCORE.INTRA.VDW>
2.64797

>  <SCORE.INTRA.VDW.0>
0.0644272

>  <SCORE.INTRA.norm>
0.00168791

>  <SCORE.RESTR>
0

>  <SCORE.RESTR.CAVITY>
0

>  <SCORE.RESTR.norm>
0

>  <SCORE.SYSTEM>
-1.09966

>  <SCORE.SYSTEM.CONST>
0

>  <SCORE.SYSTEM.DIHEDRAL>
8.79851

>  <SCORE.SYSTEM.POLAR>
-2.07653

>  <SCORE.SYSTEM.REPUL>
0.917661

>  <SCORE.SYSTEM.VDW>
-3.02702

>  <SCORE.SYSTEM.norm>
-0.0379195

>  <SCORE.heavy>
29

>  <SCORE.norm>
-1.06678

$$$$
4PP.pdb
  rDOCK(R)          3D
libRbt.so/2013.1/901 2013/11/27
 34 36  0  0  0  0  0  0  0  0999 V2000
    8.7716    9.7096   24.5074 C   0  0  0  0  0  0
    9.6983   10.4331   24.8982 O   0  0  0  0  0  0
    8.1866    9.9357   23.2909 O   0  0  0  0  0  0
    7.5685    3.0852   28.3124 N   0  0  0  0  0  0
    7.4045    4.0225   27.2737 C   0  0  0  0  0  0
    7.8031    5.3606   27.4725 C   0  0  0  0  0  0
    8.3615    5.7601   28.7042 C   0  0  0  0  0  0
    8.5269    4.8088   29.7498 C   0  0  0  0  0  0
    8.1301    3.4792   29.5479 C   0  0  0  0  0  0
    8.7649    7.1819   28.8674 N   0  0  0  0  0  0
    8.2977    8.5490   25.4051 C   0  0  0  0  0  0
    8.7176    8.7739   26.8599 C   0  0  0  0  0  0
   10.0844    8.1221   27.0456 C   0  0  0  0  0  0
   10.1468    7.4416   28.4084 C   0  0  0  0  0  0
    3.1949    2.2827   24.7168 N   0  0  0  0  0  0
    3.0549    1.5616   22.5523 N   0  0  0  0  0  0
    3.1951    2.5418   23.4224 C   0  0  0  0  0  0
    3.9381    8.1620   25.1145 C   0  0  0  0  0  0
    4.5209    9.1087   26.0012 C   0  0  0  0  0  0
    5.9327    9.2244   26.0845 C   0  0  0  0  0  0
    6.7728    8.3953   25.2848 C   0  0  0  0  0  0
    6.1916    7.4379   24.3906 C   0  0  0  0  0  0
    4.7708    7.3193   24.3027 C   0  0  0  0  0  0
    3.1236    5.6990   21.1508 C   0  0  0  0  0  0
    3.7123    6.6684   22.0144 C   0  0  0  0  0  0
    4.1283    6.2910   23.3312 C   0  0  0  0  0  0
    3.9489    4.9511   23.7643 C   0  0  0  0  0  0
    3.3664    3.9839   22.9086 C   0  0  0  0  0  0
    2.9505    4.3549   21.5990 C   0  0  0  0  0  0
    8.3139   10.7552   22.8548 H   0  0  0  0  0  0
    8.1753    7.8762   29.2411 H   0  0  0  0  0  0
    3.0846    1.3571   25.0336 H   0  0  0  0  0  0
    2.9446    0.6356   22.8677 H   0  0  0  0  0  0
    3.0604    1.7556   21.5872 H   0  0  0  0  0  0
  1  2  2  0  0  0
  1  3  1  0  0  0
  1 11  1  0  0  0
  3 30  1  0  0  0
  4  5  2  0  0  0
  4  9  1  0  0  0
  5  6  1  0  0  0
  6  7  2  0  0  0
  7  8  1  0  0  0
  7 10  1  0  0  0
  8  9  2  0  0  0
 10 14  1  0  0  0
 10 31  1  0  0  0
 11 12  1  0  0  0
 11 21  1  0  0  0
 12 13  1  0  0  0
 13 14  1  0  0  0
 15 17  2  0  0  0
 15 32  1  0  0  0
 16 17  1  0  0  0
 16 33  1  0  0  0
 16 34  1  0  0  0
 17 28  1  0  0  0
 18 19  2  0  0  0
 18 23  1  0  0  0
 19 20  1  0  0  0
 20 21  2  0  0  0
 21 22  1  0  0  0
 22 23  2  0  0  0
 23 26  1  0  0  0
 24 25  2  0  0  0
 24 29  1  0  0  0
 25 26  1  0  0  0
 26 27  2  0  0  0
 27 28  1  0  0  0
 28 29  2  0  0  0
M  END
>  <CHROM.0>
156.94172324,-60.67265851,-16.20528633,-38.24488259,-20.98178747,-85.99531450
-178.63352037,-176.41312154,36.60055368

>  <CHROM.1>
-16.48028536,20.39432737,-87.52372818,102.85978501,-90.64756300,-83.63585703
-140.62152593,21.48671142,20.45166929,84.97587193,6.37579671,6.38731312,25.41565782
0.10238512,-0.79183433,-0.55703782

>  <FORMUL>
      4PP    C23 H24 N4 O2

>  <HET>
 4PP  C 500      29

>  <HETNAM>
     4PP (2S)-(3'-AMIDINO-3-BIPHENYL)-5-(4-PYRIDYLAMINO)PENTANOI
   2 4PP C ACID

>  <Name>
4PP.pdb

>  <RI>
2.90962e+07

>  <Rbt.Current_Directory>
/home/malgorzata/Desktop/rDOCK_IFD/Wyniki/7_factor_Xa

>  <Rbt.Executable>
rbdock ($Id: //depot/dev/client3/rdock/2013.1/src/exe/rbdock.cxx#4 $)

>  <Rbt.Library>
libRbt.so (2013.1, Build901 2013/11/27)

>  <Rbt.Parameter_File>
/home/malgorzata/Desktop/rDock_2013.1_src/data/scripts/soft_docking.prm

>  <Rbt.Receptor>
cavity.prm

>  <SCORE>
-28.5128

>  <SCORE.INTER>
-27.6043

>  <SCORE.INTER.CONST>
1

>  <SCORE.INTER.POLAR>
-1.44726

>  <SCORE.INTER.REPUL>
0.0984126

>  <SCORE.INTER.ROT>
9

>  <SCORE.INTER.VDW>
-37.5757

>  <SCORE.INTER.norm>
-0.951872

>  <SCORE.INTRA>
2.81061

>  <SCORE.INTRA.DIHEDRAL>
16.2394

>  <SCORE.INTRA.DIHEDRAL.0>
20.1331

>  <SCORE.INTRA.POLAR>
0

>  <SCORE.INTRA.POLAR.0>
0

>  <SCORE.INTRA.REPUL>
0

>  <SCORE.INTRA.REPUL.0>
0

>  <SCORE.INTRA.VDW>
-0.437264

>  <SCORE.INTRA.VDW.0>
0.0644272

>  <SCORE.INTRA.norm>
0.0969177

>  <SCORE.RESTR>
0.253825

>  <SCORE.RESTR.CAVITY>
0.253825

>  <SCORE.RESTR.norm>
0.00875259

>  <SCORE.SYSTEM>
-3.97293

>  <SCORE.SYSTEM.CONST>
0

>  <SCORE.SYSTEM.DIHEDRAL>
11.7478

>  <SCORE.SYSTEM.POLAR>
-3.00196

>  <SCORE.SYSTEM.REPUL>
0.823005

>  <SCORE.SYSTEM.VDW>
-3.75518

>  <SCORE.SYSTEM.norm>
-0.136998

>  <SCORE.heavy>
29

>  <SCORE.norm>
-0.9832

$$$$
4PP.pdb
  rDOCK(R)          3D
libRbt.so/2013.1/901 2013/11/27
 34 36  0  0  0  0  0  0  0  0999 V2000
    5.3253    7.5378   20.6724 C   0  0  0  0  0  0
    5.1078    7.1001   19.5340 O   0  0  0  0  0  0
    4.7469    8.7083   21.0830 O   0  0  0  0  0  0
   11.1213    6.8937   28.1171 N   0  0  0  0  0  0
   11.2712    8.2046   27.6235 C   0  0  0  0  0  0
   10.3024    8.7345   26.7463 C   0  0  0  0  0  0
    9.1900    7.9573   26.3632 C   0  0  0  0  0  0
    9.0420    6.6341   26.8662 C   0  0  0  0  0  0
   10.0069    6.1112   27.7388 C   0  0  0  0  0  0
    8.1960    8.5583   25.4348 N   0  0  0  0  0  0
    6.2452    6.7402   21.6185 C   0  0  0  0  0  0
    5.9914    7.1201   23.0795 C   0  0  0  0  0  0
    6.8766    8.3209   23.3984 C   0  0  0  0  0  0
    8.1270    7.8547   24.1356 C   0  0  0  0  0  0
    8.6073   -0.3542   15.5039 N   0  0  0  0  0  0
    6.4644    0.1688   16.1033 N   0  0  0  0  0  0
    7.7565    0.1755   16.3633 C   0  0  0  0  0  0
    5.5831    2.4467   21.0123 C   0  0  0  0  0  0
    4.6464    3.2245   21.7469 C   0  0  0  0  0  0
    4.8722    4.6128   21.9345 C   0  0  0  0  0  0
    6.0349    5.2343   21.3918 C   0  0  0  0  0  0
    6.9837    4.4555   20.6520 C   0  0  0  0  0  0
    6.7593    3.0579   20.4596 C   0  0  0  0  0  0
   10.0281    1.2323   19.3392 C   0  0  0  0  0  0
    9.1211    2.0198   20.1070 C   0  0  0  0  0  0
    7.7762    2.2042   19.6526 C   0  0  0  0  0  0
    7.3591    1.5994   18.4380 C   0  0  0  0  0  0
    8.2563    0.8140   17.6731 C   0  0  0  0  0  0
    9.5946    0.6288   18.1205 C   0  0  0  0  0  0
    5.2658    9.4843   21.1634 H   0  0  0  0  0  0
    7.6430    9.3409   25.6608 H   0  0  0  0  0  0
    8.2763   -0.7595   14.6700 H   0  0  0  0  0  0
    6.1321   -0.2362   15.2698 H   0  0  0  0  0  0
    5.8316    0.5687   16.7427 H   0  0  0  0  0  0
  1  2  2  0  0  0
  1  3  1  0  0  0
  1 11  1  0  0  0
  3 30  1  0  0  0
  4  5  2  0  0  0
  4  9  1  0  0  0
  5  6  1  0  0  0
  6  7  2  0  0  0
  7  8  1  0  0  0
  7 10  1  0  0  0
  8  9  2  0  0  0
 10 14  1  0  0  0
 10 31  1  0  0  0
 11 12  1  0  0  0
 11 21  1  0  0  0
 12 13  1  0  0  0
 13 14  1  0  0  0
 15 17  2  0  0  0
 15 32  1  0  0  0
 16 17  1  0  0  0
 16 33  1  0  0  0
 16 34  1  0  0  0
 17 28  1  0  0  0
 18 19  2  0  0  0
 18 23  1  0  0  0
 19 20  1  0  0  0
 20 21  2  0  0  0
 21 22  1  0  0  0
 22 23  2  0  0  0
 23 26  1  0  0  0
 24 25  2  0  0  0
 24 29  1  0  0  0
 25 26  1  0  0  0
 26 27  2  0  0  0
 27 28  1  0  0  0
 28 29  2  0  0  0
M  END
>  <CHROM.0>
89.48687626,-60.67265851,-123.73000631,51.69592672,78.24144399,70.47994636
18.14328039,11.94426412,122.95229713

>  <CHROM.1>
-106.84373895,-158.94076426,115.85818272,166.69563663,-87.44481081,-76.76952484
-99.55744223,-122.38993577,167.63367349,-116.63773328,7.59059817,4.82301968
21.72799871,1.41049732,-0.63666955,0.79747136

>  <FORMUL>
      4PP    C23 H24 N4 O2

>  <HET>
 4PP  C 500      29

>  <HETNAM>
     4PP (2S)-(3'-AMIDINO-3-BIPHENYL)-5-(4-PYRIDYLAMINO)PENTANOI
   2 4PP C ACID

>  <Name>
4PP.pdb

>  <RI>
2.90962e+07

>  <Rbt.Current_Directory>
/home/malgorzata/Desktop/rDOCK_IFD/Wyniki/7_factor_Xa

>  <Rbt.Executable>
rbdock ($Id: //depot/dev/client3/rdock/2013.1/src/exe/rbdock.cxx#4 $)

>  <Rbt.Library>
libRbt.so (2013.1, Build901 2013/11/27)

>  <Rbt.Parameter_File>
/home/malgorzata/Desktop/rDock_2013.1_src/data/scripts/soft_docking.prm

>  <Rbt.Receptor>
cavity.prm

>  <SCORE>
-25.3335

>  <SCORE.INTER>
-27.9279

>  <SCORE.INTER.CONST>
1

>  <SCORE.INTER.POLAR>
-0.858464

>  <SCORE.INTER.REPUL>
0.136329

>  <SCORE.INTER.ROT>
9

>  <SCORE.INTER.VDW>
-40.0907

>  <SCORE.INTER.norm>
-0.96303

>  <SCORE.INTRA>
4.84464

>  <SCORE.INTRA.DIHEDRAL>
33.3108

>  <SCORE.INTRA.DIHEDRAL.0>
20.1331

>  <SCORE.INTRA.POLAR>
0

>  <SCORE.INTRA.POLAR.0>
0

>  <SCORE.INTRA.REPUL>
0

>  <SCORE.INTRA.REPUL.0>
0

>  <SCORE.INTRA.VDW>
-1.81751

>  <SCORE.INTRA.VDW.0>
0.0644272

>  <SCORE.INTRA.norm>
0.167057

>  <SCORE.RESTR>
0

>  <SCORE.RESTR.CAVITY>
0

>  <SCORE.RESTR.norm>
0

>  <SCORE.SYSTEM>
-2.25029

>  <SCORE.SYSTEM.CONST>
0

>  <SCORE.SYSTEM.DIHEDRAL>
7.15035

>  <SCORE.SYSTEM.POLAR>
-2.08325

>  <SCORE.SYSTEM.REPUL>
1.09741

>  <SCORE.SYSTEM.VDW>
-4.22946

>  <SCORE.SYSTEM.norm>
-0.0775964

>  <SCORE.heavy>
29

>  <SCORE.norm>
-0.87357

$$$$
4PP.pdb
  rDOCK(R)          3D
libRbt.so/2013.1/901 2013/11/27
 34 36  0  0  0  0  0  0  0  0999 V2000
    4.4938    4.3291   23.1578 C   0  0  0  0  0  0
    3.6485    3.4247   23.1107 O   0  0  0  0  0  0
    4.1271    5.5972   23.5197 O   0  0  0  0  0  0
    9.2483   -0.0737   16.6520 N   0  0  0  0  0  0
    9.9069    0.4324   17.7898 C   0  0  0  0  0  0
    9.2770    1.4156   18.5805 C   0  0  0  0  0  0
    7.9956    1.8919   18.2347 C   0  0  0  0  0  0
    7.3335    1.3760   17.0852 C   0  0  0  0  0  0
    7.9628    0.3978   16.3021 C   0  0  0  0  0  0
    7.3725    2.9302   19.0976 N   0  0  0  0  0  0
    5.9609    4.0020   22.8142 C   0  0  0  0  0  0
    6.0459    3.0697   21.6030 C   0  0  0  0  0  0
    7.4865    2.5772   21.5073 C   0  0  0  0  0  0
    8.1706    3.2235   20.3079 C   0  0  0  0  0  0
   10.2858    7.9032   29.2330 N   0  0  0  0  0  0
    8.3905    6.8289   28.5413 N   0  0  0  0  0  0
    9.4614    7.5462   28.2656 C   0  0  0  0  0  0
    8.1419    7.7270   22.0352 C   0  0  0  0  0  0
    7.3202    7.1483   21.0293 C   0  0  0  0  0  0
    6.6190    5.9436   21.2950 C   0  0  0  0  0  0
    6.7343    5.3071   22.5656 C   0  0  0  0  0  0
    7.5624    5.8844   23.5829 C   0  0  0  0  0  0
    8.2687    7.0978   23.3200 C   0  0  0  0  0  0
   11.0057    9.2309   25.1176 C   0  0  0  0  0  0
   10.2021    8.6653   24.0850 C   0  0  0  0  0  0
    9.1633    7.7381   24.4172 C   0  0  0  0  0  0
    8.9443    7.3904   25.7760 C   0  0  0  0  0  0
    9.7389    7.9519   26.8057 C   0  0  0  0  0  0
   10.7734    8.8734   26.4798 C   0  0  0  0  0  0
    4.3078    6.3180   22.9490 H   0  0  0  0  0  0
    6.5200    3.3748   18.8860 H   0  0  0  0  0  0
   10.0983    7.6381   30.1624 H   0  0  0  0  0  0
    8.2018    6.5631   29.4702 H   0  0  0  0  0  0
    7.7793    6.5590   27.8182 H   0  0  0  0  0  0
  1  2  2  0  0  0
  1  3  1  0  0  0
  1 11  1  0  0  0
  3 30  1  0  0  0
  4  5  2  0  0  0
  4  9  1  0  0  0
  5  6  1  0  0  0
  6  7  2  0  0  0
  7  8  1  0  0  0
  7 10  1  0  0  0
  8  9  2  0  0  0
 10 14  1  0  0  0
 10 31  1  0  0  0
 11 12  1  0  0  0
 11 21  1  0  0  0
 12 13  1  0  0  0
 13 14  1  0  0  0
 15 17  2  0  0  0
 15 32  1  0  0  0
 16 17  1  0  0  0
 16 33  1  0  0  0
 16 34  1  0  0  0
 17 28  1  0  0  0
 18 19  2  0  0  0
 18 23  1  0  0  0
 19 20  1  0  0  0
 20 21  2  0  0  0
 21 22  1  0  0  0
 22 23  2  0  0  0
 23 26  1  0  0  0
 24 25  2  0  0  0
 24 29  1  0  0  0
 25 26  1  0  0  0
 26 27  2  0  0  0
 27 28  1  0  0  0
 28 29  2  0  0  0
M  END
>  <CHROM.0>
163.02839898,-60.67265851,-161.68841134,-170.73596906,-163.89155302,-93.97483903
52.57194809,129.80619182,-106.18453804

>  <CHROM.1>
-123.98825583,41.52512283,-5.67637785,-104.95286055,-168.79811246,-80.62595660
-108.73932084,-55.87854263,170.89880202,-21.09822606,7.91966568,4.99461832
22.52408345,1.70966300,-0.24462736,-2.18767875

>  <FORMUL>
      4PP    C23 H24 N4 O2

>  <HET>
 4PP  C 500      29

>  <HETNAM>
     4PP (2S)-(3'-AMIDINO-3-BIPHENYL)-5-(4-PYRIDYLAMINO)PENTANOI
   2 4PP C ACID

>  <Name>
4PP.pdb

>  <RI>
2.90962e+07

>  <Rbt.Current_Directory>
/home/malgorzata/Desktop/rDOCK_IFD/Wyniki/7_factor_Xa

>  <Rbt.Executable>
rbdock ($Id: //depot/dev/client3/rdock/2013.1/src/exe/rbdock.cxx#4 $)

>  <Rbt.Library>
libRbt.so (2013.1, Build901 2013/11/27)

>  <Rbt.Parameter_File>
/home/malgorzata/Desktop/rDock_2013.1_src/data/scripts/soft_docking.prm

>  <Rbt.Receptor>
cavity.prm

>  <SCORE>
-34.2197

>  <SCORE.INTER>
-32.9601

>  <SCORE.INTER.CONST>
1

>  <SCORE.INTER.POLAR>
-1.87797

>  <SCORE.INTER.REPUL>
0.252829

>  <SCORE.INTER.ROT>
9

>  <SCORE.INTER.VDW>
-42.2392

>  <SCORE.INTER.norm>
-1.13656

>  <SCORE.INTRA>
2.75952

>  <SCORE.INTRA.DIHEDRAL>
8.25616

>  <SCORE.INTRA.DIHEDRAL.0>
20.1331

>  <SCORE.INTRA.POLAR>
0

>  <SCORE.INTRA.POLAR.0>
0

>  <SCORE.INTRA.REPUL>
0

>  <SCORE.INTRA.REPUL.0>
0

>  <SCORE.INTRA.VDW>
1.10829

>  <SCORE.INTRA.VDW.0>
0.0644272

>  <SCORE.INTRA.norm>
0.0951559

>  <SCORE.RESTR>
0

>  <SCORE.RESTR.CAVITY>
0

>  <SCORE.RESTR.norm>
0

>  <SCORE.SYSTEM>
-4.01905

>  <SCORE.SYSTEM.CONST>
0

>  <SCORE.SYSTEM.DIHEDRAL>
10.5445

>  <SCORE.SYSTEM.POLAR>
-2.41879

>  <SCORE.SYSTEM.REPUL>
0.657809

>  <SCORE.SYSTEM.VDW>
-4.35644

>  <SCORE.SYSTEM.norm>
-0.138588

>  <SCORE.heavy>
29

>  <SCORE.norm>
-1.17999

$$$$
4PP.pdb
  rDOCK(R)          3D
libRbt.so/2013.1/901 2013/11/27
 34 36  0  0  0  0  0  0  0  0999 V2000
    7.2724    5.3576   21.4291 C   0  0  0  0  0  0
    7.9781    4.4832   21.9509 O   0  0  0  0  0  0
    7.2594    5.5122   20.0692 O   0  0  0  0  0  0
   -1.0168    5.4749   22.3966 N   0  0  0  0  0  0
   -0.3956    5.5964   23.6551 C   0  0  0  0  0  0
    0.8048    4.9015   23.9102 C   0  0  0  0  0  0
    1.3806    4.0880   22.9127 C   0  0  0  0  0  0
    0.7501    3.9701   21.6421 C   0  0  0  0  0  0
   -0.4428    4.6633   21.3921 C   0  0  0  0  0  0
    2.6457    3.3734   23.2289 N   0  0  0  0  0  0
    6.4047    6.2575   22.3318 C   0  0  0  0  0  0
    5.7226    5.4379   23.4301 C   0  0  0  0  0  0
    4.3005    5.1439   22.9626 C   0  0  0  0  0  0
    3.6136    4.2190   23.9610 C   0  0  0  0  0  0
   14.4282    8.2953   24.4640 N   0  0  0  0  0  0
   14.9207    6.7217   26.0469 N   0  0  0  0  0  0
   14.0513    7.5258   25.4682 C   0  0  0  0  0  0
    8.8485    9.4956   24.0000 C   0  0  0  0  0  0
    7.8304    9.7771   23.0481 C   0  0  0  0  0  0
    7.0462    8.7202   22.5173 C   0  0  0  0  0  0
    7.2736    7.3750   22.9315 C   0  0  0  0  0  0
    8.2994    7.0846   23.8892 C   0  0  0  0  0  0
    9.0900    8.1458   24.4270 C   0  0  0  0  0  0
   10.9274    7.3297   27.7783 C   0  0  0  0  0  0
    9.8830    7.5994   26.8463 C   0  0  0  0  0  0
   10.1998    7.8450   25.4720 C   0  0  0  0  0  0
   11.5552    7.8177   25.0509 C   0  0  0  0  0  0
   12.5961    7.5477   25.9731 C   0  0  0  0  0  0
   12.2858    7.3040   27.3406 C   0  0  0  0  0  0
    6.4818    5.8090   19.6389 H   0  0  0  0  0  0
    2.8204    2.4377   22.9777 H   0  0  0  0  0  0
   15.3609    8.2729   24.1498 H   0  0  0  0  0  0
   15.8537    6.6982   25.7337 H   0  0  0  0  0  0
   14.6370    6.1446   26.7924 H   0  0  0  0  0  0
  1  2  2  0  0  0
  1  3  1  0  0  0
  1 11  1  0  0  0
  3 30  1  0  0  0
  4  5  2  0  0  0
  4  9  1  0  0  0
  5  6  1  0  0  0
  6  7  2  0  0  0
  7  8  1  0  0  0
  7 10  1  0  0  0
  8  9  2  0  0  0
 10 14  1  0  0  0
 10 31  1  0  0  0
 11 12  1  0  0  0
 11 21  1  0  0  0
 12 13  1  0  0  0
 13 14  1  0  0  0
 15 17  2  0  0  0
 15 32  1  0  0  0
 16 17  1  0  0  0
 16 33  1  0  0  0
 16 34  1  0  0  0
 17 28  1  0  0  0
 18 19  2  0  0  0
 18 23  1  0  0  0
 19 20  1  0  0  0
 20 21  2  0  0  0
 21 22  1  0  0  0
 22 23  2  0  0  0
 23 26  1  0  0  0
 24 25  2  0  0  0
 24 29  1  0  0  0
 25 26  1  0  0  0
 26 27  2  0  0  0
 27 28  1  0  0  0
 28 29  2  0  0  0
M  END
>  <CHROM.0>
101.12544067,-60.67265851,-174.22466269,-172.13850288,-150.74333682,-162.28521665
87.08399035,47.62733784,88.62821836

>  <CHROM.1>
148.50128495,-42.63107966,-42.70921050,-78.75940903,-98.10717177,111.97561111
174.77828640,-148.94936616,31.23752024,101.56143636,7.10109556,6.39684363
23.76330436,-2.85794614,0.22651292,1.44895549

>  <FORMUL>
      4PP    C23 H24 N4 O2

>  <HET>
 4PP  C 500      29

>  <HETNAM>
     4PP (2S)-(3'-AMIDINO-3-BIPHENYL)-5-(4-PYRIDYLAMINO)PENTANOI
   2 4PP C ACID

>  <Name>
4PP.pdb

>  <RI>
2.90962e+07

>  <Rbt.Current_Directory>
/home/malgorzata/Desktop/rDOCK_IFD/Wyniki/7_factor_Xa

>  <Rbt.Executable>
rbdock ($Id: //depot/dev/client3/rdock/2013.1/src/exe/rbdock.cxx#4 $)

>  <Rbt.Library>
libRbt.so (2013.1, Build901 2013/11/27)

>  <Rbt.Parameter_File>
/home/malgorzata/Desktop/rDock_2013.1_src/data/scripts/soft_docking.prm

>  <Rbt.Receptor>
cavity.prm

>  <SCORE>
-24.856

>  <SCORE.INTER>
-22.9176

>  <SCORE.INTER.CONST>
1

>  <SCORE.INTER.POLAR>
-0.390103

>  <SCORE.INTER.REPUL>
0.270788

>  <SCORE.INTER.ROT>
9

>  <SCORE.INTER.VDW>
-37.3452

>  <SCORE.INTER.norm>
-0.790263

>  <SCORE.INTRA>
0.317238

>  <SCORE.INTRA.DIHEDRAL>
11.9733

>  <SCORE.INTRA.DIHEDRAL.0>
20.1331

>  <SCORE.INTRA.POLAR>
0

>  <SCORE.INTRA.POLAR.0>
0

>  <SCORE.INTRA.REPUL>
0

>  <SCORE.INTRA.REPUL.0>
0

>  <SCORE.INTRA.VDW>
-2.07743

>  <SCORE.INTRA.VDW.0>
0.0644272

>  <SCORE.INTRA.norm>
0.0109392

>  <SCORE.RESTR>
0.218877

>  <SCORE.RESTR.CAVITY>
0.218877

>  <SCORE.RESTR.norm>
0.00754749

>  <SCORE.SYSTEM>
-2.47448

>  <SCORE.SYSTEM.CONST>
0

>  <SCORE.SYSTEM.DIHEDRAL>
9.05789

>  <SCORE.SYSTEM.POLAR>
-1.75155

>  <SCORE.SYSTEM.REPUL>
0.657809

>  <SCORE.SYSTEM.VDW>
-4.33719

>  <SCORE.SYSTEM.norm>
-0.0853268

>  <SCORE.heavy>
29

>  <SCORE.norm>
-0.857103

$$$$
4PP.pdb
  rDOCK(R)          3D
libRbt.so/2013.1/901 2013/11/27
 34 36  0  0  0  0  0  0  0  0999 V2000
    6.4430    1.2494   21.2437 C   0  0  0  0  0  0
    6.4298    0.8125   22.4029 O   0  0  0  0  0  0
    5.5598    0.7678   20.3155 O   0  0  0  0  0  0
   12.5388   -2.9005   17.3914 N   0  0  0  0  0  0
   11.5957   -2.7261   16.3597 C   0  0  0  0  0  0
   10.5886   -1.7480   16.4934 C   0  0  0  0  0  0
   10.5236   -0.9492   17.6537 C   0  0  0  0  0  0
   11.4800   -1.1280   18.6925 C   0  0  0  0  0  0
   12.4803   -2.1009   18.5552 C   0  0  0  0  0  0
    9.4428    0.0674   17.7502 N   0  0  0  0  0  0
    7.4586    2.3472   20.8684 C   0  0  0  0  0  0
    7.9641    2.1601   19.4357 C   0  0  0  0  0  0
    9.4294    1.7441   19.5201 C   0  0  0  0  0  0
    9.9474    1.4059   18.1268 C   0  0  0  0  0  0
    9.7724   10.8955   24.4605 N   0  0  0  0  0  0
    9.7974   10.0603   22.3330 N   0  0  0  0  0  0
    9.3800    9.9923   23.5813 C   0  0  0  0  0  0
    5.5731    6.2797   21.3374 C   0  0  0  0  0  0
    5.1387    5.3883   20.3182 C   0  0  0  0  0  0
    5.7566    4.1185   20.1784 C   0  0  0  0  0  0
    6.8130    3.7301   21.0534 C   0  0  0  0  0  0
    7.2566    4.6248   22.0813 C   0  0  0  0  0  0
    6.6363    5.9033   22.2265 C   0  0  0  0  0  0
    7.1095    7.6435   25.6936 C   0  0  0  0  0  0
    6.6638    6.7275   24.6963 C   0  0  0  0  0  0
    7.1026    6.8790   23.3421 C   0  0  0  0  0  0
    7.9793    7.9436   23.0058 C   0  0  0  0  0  0
    8.4267    8.8547   23.9940 C   0  0  0  0  0  0
    7.9922    8.7085   25.3414 C   0  0  0  0  0  0
    4.8722    0.1886   20.5794 H   0  0  0  0  0  0
    8.4930   -0.1293   17.5816 H   0  0  0  0  0  0
   10.3819   11.6180   24.1853 H   0  0  0  0  0  0
   10.4068   10.7823   22.0563 H   0  0  0  0  0  0
    9.4998    9.3890   21.6771 H   0  0  0  0  0  0
  1  2  2  0  0  0
  1  3  1  0  0  0
  1 11  1  0  0  0
  3 30  1  0  0  0
  4  5  2  0  0  0
  4  9  1  0  0  0
  5  6  1  0  0  0
  6  7  2  0  0  0
  7  8  1  0  0  0
  7 10  1  0  0  0
  8  9  2  0  0  0
 10 14  1  0  0  0
 10 31  1  0  0  0
 11 12  1  0  0  0
 11 21  1  0  0  0
 12 13  1  0  0  0
 13 14  1  0  0  0
 15 17  2  0  0  0
 15 32  1  0  0  0
 16 17  1  0  0  0
 16 33  1  0  0  0
 16 34  1  0  0  0
 17 28  1  0  0  0
 18 19  2  0  0  0
 18 23  1  0  0  0
 19 20  1  0  0  0
 20 21  2  0  0  0
 21 22  1  0  0  0
 22 23  2  0  0  0
 23 26  1  0  0  0
 24 25  2  0  0  0
 24 29  1  0  0  0
 25 26  1  0  0  0
 26 27  2  0  0  0
 27 28  1  0  0  0
 28 29  2  0  0  0
M  END
>  <CHROM.0>
78.82017828,-60.67265851,-23.04548527,41.89115911,-55.05553478,-147.24020795
-70.55455188,2.98172597,-46.16634454

>  <CHROM.1>
7.87174508,144.23407885,-130.08240038,-112.53285107,-110.91180708,-68.23057593
174.28243184,-76.94353185,177.02091915,99.74482245,8.39144819,3.63969108
20.95354495,1.34091591,-0.25165147,-2.66068585

>  <FORMUL>
      4PP    C23 H24 N4 O2

>  <HET>
 4PP  C 500      29

>  <HETNAM>
     4PP (2S)-(3'-AMIDINO-3-BIPHENYL)-5-(4-PYRIDYLAMINO)PENTANOI
   2 4PP C ACID

>  <Name>
4PP.pdb

>  <RI>
2.90962e+07

>  <Rbt.Current_Directory>
/home/malgorzata/Desktop/rDOCK_IFD/Wyniki/7_factor_Xa

>  <Rbt.Executable>
rbdock ($Id: //depot/dev/client3/rdock/2013.1/src/exe/rbdock.cxx#4 $)

>  <Rbt.Library>
libRbt.so (2013.1, Build901 2013/11/27)

>  <Rbt.Parameter_File>
/home/malgorzata/Desktop/rDock_2013.1_src/data/scripts/soft_docking.prm

>  <Rbt.Receptor>
cavity.prm

>  <SCORE>
-37.8185

>  <SCORE.INTER>
-34.0187

>  <SCORE.INTER.CONST>
1

>  <SCORE.INTER.POLAR>
-1.23695

>  <SCORE.INTER.REPUL>
0

>  <SCORE.INTER.ROT>
9

>  <SCORE.INTER.VDW>
-44.2131

>  <SCORE.INTER.norm>
-1.17306

>  <SCORE.INTRA>
-1.77574

>  <SCORE.INTRA.DIHEDRAL>
2.96357

>  <SCORE.INTRA.DIHEDRAL.0>
20.1331

>  <SCORE.INTRA.POLAR>
0

>  <SCORE.INTRA.POLAR.0>
0

>  <SCORE.INTRA.REPUL>
0

>  <SCORE.INTRA.REPUL.0>
0

>  <SCORE.INTRA.VDW>
-2.36846

>  <SCORE.INTRA.VDW.0>
0.0644272

>  <SCORE.INTRA.norm>
-0.0612324

>  <SCORE.RESTR>
0.118167

>  <SCORE.RESTR.CAVITY>
0.118167

>  <SCORE.RESTR.norm>
0.00407474

>  <SCORE.SYSTEM>
-2.14219

>  <SCORE.SYSTEM.CONST>
0

>  <SCORE.SYSTEM.DIHEDRAL>
7.63931

>  <SCORE.SYSTEM.POLAR>
-1.62015

>  <SCORE.SYSTEM.REPUL>
0.657809

>  <SCORE.SYSTEM.VDW>
-3.74238

>  <SCORE.SYSTEM.norm>
-0.0738686

>  <SCORE.heavy>
29

>  <SCORE.norm>
-1.30409

$$$$
4PP.pdb
  rDOCK(R)          3D
libRbt.so/2013.1/901 2013/11/27
 34 36  0  0  0  0  0  0  0  0999 V2000
    7.3795    0.5743   21.2169 C   0  0  0  0  0  0
    6.2619    0.1459   20.8975 O   0  0  0  0  0  0
    8.2143   -0.1866   21.9899 O   0  0  0  0  0  0
    8.1565   -4.1804   15.5887 N   0  0  0  0  0  0
    8.8624   -3.7779   16.7394 C   0  0  0  0  0  0
    9.0530   -2.4042   16.9957 C   0  0  0  0  0  0
    8.5419   -1.4377   16.1051 C   0  0  0  0  0  0
    7.8278   -1.8495   14.9448 C   0  0  0  0  0  0
    7.6396   -3.2162   14.6941 C   0  0  0  0  0  0
    8.7697   -0.0017   16.4163 N   0  0  0  0  0  0
    7.8171    1.9678   20.7225 C   0  0  0  0  0  0
    7.4867    2.1523   19.2393 C   0  0  0  0  0  0
    8.4909    1.3254   18.4425 C   0  0  0  0  0  0
    7.7637    0.5485   17.3508 C   0  0  0  0  0  0
   10.1121    9.0515   20.9435 N   0  0  0  0  0  0
    8.9684   10.9901   20.5457 N   0  0  0  0  0  0
    8.9694    9.6977   20.8047 C   0  0  0  0  0  0
    5.8805    5.0101   23.2192 C   0  0  0  0  0  0
    5.9291    3.6535   23.6426 C   0  0  0  0  0  0
    6.5599    2.6796   22.8257 C   0  0  0  0  0  0
    7.1450    3.0523   21.5802 C   0  0  0  0  0  0
    7.0976    4.4176   21.1470 C   0  0  0  0  0  0
    6.4649    5.4013   21.9670 C   0  0  0  0  0  0
    5.1614    8.9029   20.8214 C   0  0  0  0  0  0
    5.1701    7.5401   21.2395 C   0  0  0  0  0  0
    6.4140    6.8862   21.5125 C   0  0  0  0  0  0
    7.6293    7.6043   21.3629 C   0  0  0  0  0  0
    7.6252    8.9594   20.9500 C   0  0  0  0  0  0
    6.3910    9.6132   20.6765 C   0  0  0  0  0  0
    8.0114   -1.0867   22.1526 H   0  0  0  0  0  0
    9.5107    0.5264   16.0406 H   0  0  0  0  0  0
   10.9651    9.5338   20.8485 H   0  0  0  0  0  0
    9.8207   11.4737   20.4505 H   0  0  0  0  0  0
    8.1155   11.4718   20.4475 H   0  0  0  0  0  0
  1  2  2  0  0  0
  1  3  1  0  0  0
  1 11  1  0  0  0
  3 30  1  0  0  0
  4  5  2  0  0  0
  4  9  1  0  0  0
  5  6  1  0  0  0
  6  7  2  0  0  0
  7  8  1  0  0  0
  7 10  1  0  0  0
  8  9  2  0  0  0
 10 14  1  0  0  0
 10 31  1  0  0  0
 11 12  1  0  0  0
 11 21  1  0  0  0
 12 13  1  0  0  0
 13 14  1  0  0  0
 15 17  2  0  0  0
 15 32  1  0  0  0
 16 17  1  0  0  0
 16 33  1  0  0  0
 16 34  1  0  0  0
 17 28  1  0  0  0
 18 19  2  0  0  0
 18 23  1  0  0  0
 19 20  1  0  0  0
 20 21  2  0  0  0
 21 22  1  0  0  0
 22 23  2  0  0  0
 23 26  1  0  0  0
 24 25  2  0  0  0
 24 29  1  0  0  0
 25 26  1  0  0  0
 26 27  2  0  0  0
 27 28  1  0  0  0
 28 29  2  0  0  0
M  END
>  <CHROM.0>
77.42959803,-60.67265851,-3.19429117,59.55612058,179.15427365,169.06528263
147.74316567,-17.60356592,-43.99292919

>  <CHROM.1>
10.89408975,-45.00291219,-84.25438015,132.63135838,-74.19646992,15.82339007
134.94947430,167.69899019,6.06450850,-63.93980196,7.54701227,3.16806970,19.80025258
1.37643935,-1.17737730,-2.91355370

>  <FORMUL>
      4PP    C23 H24 N4 O2

>  <HET>
 4PP  C 500      29

>  <HETNAM>
     4PP (2S)-(3'-AMIDINO-3-BIPHENYL)-5-(4-PYRIDYLAMINO)PENTANOI
   2 4PP C ACID

>  <Name>
4PP.pdb

>  <RI>
2.90962e+07

>  <Rbt.Current_Directory>
/home/malgorzata/Desktop/rDOCK_IFD/Wyniki/7_factor_Xa

>  <Rbt.Executable>
rbdock ($Id: //depot/dev/client3/rdock/2013.1/src/exe/rbdock.cxx#4 $)

>  <Rbt.Library>
libRbt.so (2013.1, Build901 2013/11/27)

>  <Rbt.Parameter_File>
/home/malgorzata/Desktop/rDock_2013.1_src/data/scripts/soft_docking.prm

>  <Rbt.Receptor>
cavity.prm

>  <SCORE>
-30.3261

>  <SCORE.INTER>
-24.1875

>  <SCORE.INTER.CONST>
1

>  <SCORE.INTER.POLAR>
-2.52269

>  <SCORE.INTER.REPUL>
0.406913

>  <SCORE.INTER.ROT>
9

>  <SCORE.INTER.VDW>
-32.0449

>  <SCORE.INTER.norm>
-0.834052

>  <SCORE.INTRA>
0.33247

>  <SCORE.INTRA.DIHEDRAL>
9.196

>  <SCORE.INTRA.DIHEDRAL.0>
20.1331

>  <SCORE.INTRA.POLAR>
0

>  <SCORE.INTRA.POLAR.0>
0

>  <SCORE.INTRA.REPUL>
0

>  <SCORE.INTRA.REPUL.0>
0

>  <SCORE.INTRA.VDW>
-1.50673

>  <SCORE.INTRA.VDW.0>
0.0644272

>  <SCORE.INTRA.norm>
0.0114645

>  <SCORE.RESTR>
0.281961

>  <SCORE.RESTR.CAVITY>
0.281961

>  <SCORE.RESTR.norm>
0.00972279

>  <SCORE.SYSTEM>
-6.75305

>  <SCORE.SYSTEM.CONST>
0

>  <SCORE.SYSTEM.DIHEDRAL>
2.23968

>  <SCORE.SYSTEM.POLAR>
-2.3423

>  <SCORE.SYSTEM.REPUL>
0.657809

>  <SCORE.SYSTEM.VDW>
-3.19811

>  <SCORE.SYSTEM.norm>
-0.232864

>  <SCORE.heavy>
29

>  <SCORE.norm>
-1.04573

$$$$
4PP.pdb
  rDOCK(R)          3D
libRbt.so/2013.1/901 2013/11/27
 34 36  0  0  0  0  0  0  0  0999 V2000
    2.2855    1.6988   23.4590 C   0  0  0  0  0  0
    2.9577    1.2940   24.4176 O   0  0  0  0  0  0
    1.1316    1.0536   23.1048 O   0  0  0  0  0  0
    7.8331    9.2572   23.9858 N   0  0  0  0  0  0
    8.2493    8.0927   23.3111 C   0  0  0  0  0  0
    7.2843    7.1976   22.8047 C   0  0  0  0  0  0
    5.9100    7.4644   22.9732 C   0  0  0  0  0  0
    5.4945    8.6433   23.6539 C   0  0  0  0  0  0
    6.4570    9.5312   24.1551 C   0  0  0  0  0  0
    4.9300    6.4904   22.4237 N   0  0  0  0  0  0
    2.7623    2.9422   22.6816 C   0  0  0  0  0  0
    2.5674    4.2149   23.5097 C   0  0  0  0  0  0
    2.7530    5.4025   22.5704 C   0  0  0  0  0  0
    3.6818    6.4254   23.2147 C   0  0  0  0  0  0
   10.2376    1.3120   17.5260 N   0  0  0  0  0  0
   10.2629   -0.9663   17.3440 N   0  0  0  0  0  0
    9.6244    0.1484   17.6388 C   0  0  0  0  0  0
    6.9830    2.4784   21.5816 C   0  0  0  0  0  0
    6.6087    3.3140   22.6696 C   0  0  0  0  0  0
    5.2396    3.4541   23.0156 C   0  0  0  0  0  0
    4.2347    2.7629   22.2775 C   0  0  0  0  0  0
    4.6054    1.9208   21.1787 C   0  0  0  0  0  0
    5.9825    1.7758   20.8281 C   0  0  0  0  0  0
    5.8753   -0.8471   17.9329 C   0  0  0  0  0  0
    5.4581   -0.0179   19.0149 C   0  0  0  0  0  0
    6.3981    0.8594   19.6441 C   0  0  0  0  0  0
    7.7400    0.8940   19.1826 C   0  0  0  0  0  0
    8.1584    0.0736   18.1061 C   0  0  0  0  0  0
    7.2275   -0.8009   17.4782 C   0  0  0  0  0  0
    0.5171    1.4718   22.5343 H   0  0  0  0  0  0
    5.0944    5.9469   21.6195 H   0  0  0  0  0  0
   11.1747    1.3476   17.2263 H   0  0  0  0  0  0
   11.2000   -0.9322   17.0441 H   0  0  0  0  0  0
    9.8028   -1.8330   17.4236 H   0  0  0  0  0  0
  1  2  2  0  0  0
  1  3  1  0  0  0
  1 11  1  0  0  0
  3 30  1  0  0  0
  4  5  2  0  0  0
  4  9  1  0  0  0
  5  6  1  0  0  0
  6  7  2  0  0  0
  7  8  1  0  0  0
  7 10  1  0  0  0
  8  9  2  0  0  0
 10 14  1  0  0  0
 10 31  1  0  0  0
 11 12  1  0  0  0
 11 21  1  0  0  0
 12 13  1  0  0  0
 13 14  1  0  0  0
 15 17  2  0  0  0
 15 32  1  0  0  0
 16 17  1  0  0  0
 16 33  1  0  0  0
 16 34  1  0  0  0
 17 28  1  0  0  0
 18 19  2  0  0  0
 18 23  1  0  0  0
 19 20  1  0  0  0
 20 21  2  0  0  0
 21 22  1  0  0  0
 22 23  2  0  0  0
 23 26  1  0  0  0
 24 25  2  0  0  0
 24 29  1  0  0  0
 25 26  1  0  0  0
 26 27  2  0  0  0
 27 28  1  0  0  0
 28 29  2  0  0  0
M  END
>  <CHROM.0>
83.68334561,-60.67265851,21.63989046,166.21181332,69.21793950,-53.38614839
114.78526550,3.84079820,-129.08601266

>  <CHROM.1>
164.51694383,-72.01663598,148.81323145,-179.93352585,-167.18301373,-103.05972218
-132.60661000,113.73095049,-42.45610810,169.73063851,5.78839081,3.29738209
21.45851045,1.91762139,0.48595736,0.47806228

>  <FORMUL>
      4PP    C23 H24 N4 O2

>  <HET>
 4PP  C 500      29

>  <HETNAM>
     4PP (2S)-(3'-AMIDINO-3-BIPHENYL)-5-(4-PYRIDYLAMINO)PENTANOI
   2 4PP C ACID

>  <Name>
4PP.pdb

>  <RI>
2.90962e+07

>  <Rbt.Current_Directory>
/home/malgorzata/Desktop/rDOCK_IFD/Wyniki/7_factor_Xa

>  <Rbt.Executable>
rbdock ($Id: //depot/dev/client3/rdock/2013.1/src/exe/rbdock.cxx#4 $)

>  <Rbt.Library>
libRbt.so (2013.1, Build901 2013/11/27)

>  <Rbt.Parameter_File>
/home/malgorzata/Desktop/rDock_2013.1_src/data/scripts/soft_docking.prm

>  <Rbt.Receptor>
cavity.prm

>  <SCORE>
-24.1792

>  <SCORE.INTER>
-18.3742

>  <SCORE.INTER.CONST>
1

>  <SCORE.INTER.POLAR>
-0.578005

>  <SCORE.INTER.REPUL>
0

>  <SCORE.INTER.ROT>
9

>  <SCORE.INTER.VDW>
-30.809

>  <SCORE.INTER.norm>
-0.633593

>  <SCORE.INTRA>
0.725407

>  <SCORE.INTRA.DIHEDRAL>
7.66307

>  <SCORE.INTRA.DIHEDRAL.0>
20.1331

>  <SCORE.INTRA.POLAR>
0

>  <SCORE.INTRA.POLAR.0>
0

>  <SCORE.INTRA.REPUL>
0

>  <SCORE.INTRA.REPUL.0>
0

>  <SCORE.INTRA.VDW>
-0.807207

>  <SCORE.INTRA.VDW.0>
0.0644272

>  <SCORE.INTRA.norm>
0.025014

>  <SCORE.RESTR>
0

>  <SCORE.RESTR.CAVITY>
0

>  <SCORE.RESTR.norm>
0

>  <SCORE.SYSTEM>
-6.53047

>  <SCORE.SYSTEM.CONST>
0

>  <SCORE.SYSTEM.DIHEDRAL>
3.43995

>  <SCORE.SYSTEM.POLAR>
-2.87786

>  <SCORE.SYSTEM.REPUL>
1.04118

>  <SCORE.SYSTEM.VDW>
-3.67165

>  <SCORE.SYSTEM.norm>
-0.225189

>  <SCORE.heavy>
29

>  <SCORE.norm>
-0.833767

$$$$
4PP.pdb
  rDOCK(R)          3D
libRbt.so/2013.1/901 2013/11/27
 34 36  0  0  0  0  0  0  0  0999 V2000
    5.2298    4.1034   22.9681 C   0  0  0  0  0  0
    4.6119    3.0920   22.6078 O   0  0  0  0  0  0
    4.8001    4.8253   24.0487 O   0  0  0  0  0  0
    7.5525    2.0724   14.6501 N   0  0  0  0  0  0
    6.4229    1.5170   15.2826 C   0  0  0  0  0  0
    6.4555    1.2610   16.6691 C   0  0  0  0  0  0
    7.6121    1.5572   17.4194 C   0  0  0  0  0  0
    8.7501    2.1201   16.7760 C   0  0  0  0  0  0
    8.7134    2.3740   15.3975 C   0  0  0  0  0  0
    7.5998    1.2680   18.8778 N   0  0  0  0  0  0
    6.4914    4.5276   22.1896 C   0  0  0  0  0  0
    6.3364    4.2384   20.6944 C   0  0  0  0  0  0
    6.5238    2.7371   20.4989 C   0  0  0  0  0  0
    7.7986    2.4789   19.7037 C   0  0  0  0  0  0
   10.0893    7.9385   29.6025 N   0  0  0  0  0  0
    8.4234    6.6288   28.7458 N   0  0  0  0  0  0
    9.3489    7.5525   28.5800 C   0  0  0  0  0  0
    7.2538    8.7967   22.8479 C   0  0  0  0  0  0
    6.3738    8.3719   21.8148 C   0  0  0  0  0  0
    6.1351    6.9877   21.6135 C   0  0  0  0  0  0
    6.7738    6.0178   22.4405 C   0  0  0  0  0  0
    7.6632    6.4395   23.4822 C   0  0  0  0  0  0
    7.9051    7.8320   23.6891 C   0  0  0  0  0  0
   10.7531    9.6700   25.6342 C   0  0  0  0  0  0
    9.8924    9.2637   24.5730 C   0  0  0  0  0  0
    8.8608    8.3024   24.8203 C   0  0  0  0  0  0
    8.7061    7.7620   26.1238 C   0  0  0  0  0  0
    9.5576    8.1648   27.1819 C   0  0  0  0  0  0
   10.5852    9.1194   26.9404 C   0  0  0  0  0  0
    5.3890    5.4069   24.4879 H   0  0  0  0  0  0
    7.4729    0.3669   19.2536 H   0  0  0  0  0  0
    9.9470    7.5402   30.4915 H   0  0  0  0  0  0
    8.2800    6.2296   29.6342 H   0  0  0  0  0  0
    7.8755    6.3382   27.9813 H   0  0  0  0  0  0
  1  2  2  0  0  0
  1  3  1  0  0  0
  1 11  1  0  0  0
  3 30  1  0  0  0
  4  5  2  0  0  0
  4  9  1  0  0  0
  5  6  1  0  0  0
  6  7  2  0  0  0
  7  8  1  0  0  0
  7 10  1  0  0  0
  8  9  2  0  0  0
 10 14  1  0  0  0
 10 31  1  0  0  0
 11 12  1  0  0  0
 11 21  1  0  0  0
 12 13  1  0  0  0
 13 14  1  0  0  0
 15 17  2  0  0  0
 15 32  1  0  0  0
 16 17  1  0  0  0
 16 33  1  0  0  0
 16 34  1  0  0  0
 17 28  1  0  0  0
 18 19  2  0  0  0
 18 23  1  0  0  0
 19 20  1  0  0  0
 20 21  2  0  0  0
 21 22  1  0  0  0
 22 23  2  0  0  0
 23 26  1  0  0  0
 24 25  2  0  0  0
 24 29  1  0  0  0
 25 26  1  0  0  0
 26 27  2  0  0  0
 27 28  1  0  0  0
 28 29  2  0  0  0
M  END
>  <CHROM.0>
-129.91948680,-60.67265851,-68.52762677,-68.24925364,55.94535795,-68.47593972
-46.86451758,-118.27196042,141.20477045

>  <CHROM.1>
160.38851850,35.66424343,-119.16901215,114.50610461,-76.19829447,-86.66859638
-113.36214051,-147.58969169,-177.47643733,-48.74233549,7.64992084,5.34730575
22.30358145,1.80486525,-0.76291085,-1.96859929

>  <FORMUL>
      4PP    C23 H24 N4 O2

>  <HET>
 4PP  C 500      29

>  <HETNAM>
     4PP (2S)-(3'-AMIDINO-3-BIPHENYL)-5-(4-PYRIDYLAMINO)PENTANOI
   2 4PP C ACID

>  <Name>
4PP.pdb

>  <RI>
2.90962e+07

>  <Rbt.Current_Directory>
/home/malgorzata/Desktop/rDOCK_IFD/Wyniki/7_factor_Xa

>  <Rbt.Executable>
rbdock ($Id: //depot/dev/client3/rdock/2013.1/src/exe/rbdock.cxx#4 $)

>  <Rbt.Library>
libRbt.so (2013.1, Build901 2013/11/27)

>  <Rbt.Parameter_File>
/home/malgorzata/Desktop/rDock_2013.1_src/data/scripts/soft_docking.prm

>  <Rbt.Receptor>
cavity.prm

>  <SCORE>
-27.0815

>  <SCORE.INTER>
-24.6826

>  <SCORE.INTER.CONST>
1

>  <SCORE.INTER.POLAR>
-1.5063

>  <SCORE.INTER.REPUL>
0

>  <SCORE.INTER.ROT>
9

>  <SCORE.INTER.VDW>
-33.9612

>  <SCORE.INTER.norm>
-0.851125

>  <SCORE.INTRA>
1.02191

>  <SCORE.INTRA.DIHEDRAL>
9.77214

>  <SCORE.INTRA.DIHEDRAL.0>
20.1331

>  <SCORE.INTRA.POLAR>
0

>  <SCORE.INTRA.POLAR.0>
0

>  <SCORE.INTRA.REPUL>
0

>  <SCORE.INTRA.REPUL.0>
0

>  <SCORE.INTRA.VDW>
-0.932515

>  <SCORE.INTRA.VDW.0>
0.0644272

>  <SCORE.INTRA.norm>
0.0352384

>  <SCORE.RESTR>
0.246398

>  <SCORE.RESTR.CAVITY>
0.246398

>  <SCORE.RESTR.norm>
0.00849647

>  <SCORE.SYSTEM>
-3.66722

>  <SCORE.SYSTEM.CONST>
0

>  <SCORE.SYSTEM.DIHEDRAL>
9.78309

>  <SCORE.SYSTEM.POLAR>
-2.52619

>  <SCORE.SYSTEM.REPUL>
0.836149

>  <SCORE.SYSTEM.VDW>
-4.15048

>  <SCORE.SYSTEM.norm>
-0.126456

>  <SCORE.heavy>
29

>  <SCORE.norm>
-0.933846

$$$$
