4PP.pdb
  rDOCK(R)          3D
libRbt.so/2013.1/901 2013/11/27
 34 36  0  0  0  0  0  0  0  0999 V2000
    4.2463    4.2923   19.6276 C   0  0  0  0  0  0
    4.1007    4.6815   18.4606 O   0  0  0  0  0  0
    3.2486    3.5923   20.2503 O   0  0  0  0  0  0
   10.2221    8.4711   26.2982 N   0  0  0  0  0  0
    8.9761    7.8255   26.4222 C   0  0  0  0  0  0
    8.1179    7.7457   25.3060 C   0  0  0  0  0  0
    8.5025    8.3099   24.0723 C   0  0  0  0  0  0
    9.7632    8.9595   23.9516 C   0  0  0  0  0  0
   10.6140    9.0359   25.0635 C   0  0  0  0  0  0
    7.5634    8.2025   22.9244 N   0  0  0  0  0  0
    5.5682    4.5986   20.3601 C   0  0  0  0  0  0
    5.3201    5.4547   21.6046 C   0  0  0  0  0  0
    6.3089    6.6157   21.5634 C   0  0  0  0  0  0
    6.7241    6.9860   22.9828 C   0  0  0  0  0  0
   12.5910    1.0430   18.1204 N   0  0  0  0  0  0
   12.7221   -1.1920   17.6599 N   0  0  0  0  0  0
   12.0002   -0.1207   17.9215 C   0  0  0  0  0  0
    7.5572    0.8496   21.4688 C   0  0  0  0  0  0
    6.8773    1.6231   22.4494 C   0  0  0  0  0  0
    6.2369    2.8334   22.0769 C   0  0  0  0  0  0
    6.2719    3.2810   20.7237 C   0  0  0  0  0  0
    6.9571    2.5070   19.7311 C   0  0  0  0  0  0
    7.6017    1.2873   20.1017 C   0  0  0  0  0  0
    8.3374   -1.2000   17.1785 C   0  0  0  0  0  0
    7.6260   -0.4300   18.1446 C   0  0  0  0  0  0
    8.3409    0.4350   19.0334 C   0  0  0  0  0  0
    9.7552    0.5165   18.9432 C   0  0  0  0  0  0
   10.4660   -0.2450   17.9831 C   0  0  0  0  0  0
    9.7595   -1.1071   17.0981 C   0  0  0  0  0  0
    3.4395    3.0824   21.0129 H   0  0  0  0  0  0
    7.5064    8.8698   22.2028 H   0  0  0  0  0  0
   13.5723    1.1104   18.0786 H   0  0  0  0  0  0
   13.7035   -1.1261   17.6177 H   0  0  0  0  0  0
   12.2800   -2.0582   17.5066 H   0  0  0  0  0  0
  1  2  2  0  0  0
  1  3  1  0  0  0
  1 11  1  0  0  0
  3 30  1  0  0  0
  4  5  2  0  0  0
  4  9  1  0  0  0
  5  6  1  0  0  0
  6  7  2  0  0  0
  7  8  1  0  0  0
  7 10  1  0  0  0
  8  9  2  0  0  0
 10 14  1  0  0  0
 10 31  1  0  0  0
 11 12  1  0  0  0
 11 21  1  0  0  0
 12 13  1  0  0  0
 13 14  1  0  0  0
 15 17  2  0  0  0
 15 32  1  0  0  0
 16 17  1  0  0  0
 16 33  1  0  0  0
 16 34  1  0  0  0
 17 28  1  0  0  0
 18 19  2  0  0  0
 18 23  1  0  0  0
 19 20  1  0  0  0
 20 21  2  0  0  0
 21 22  1  0  0  0
 22 23  2  0  0  0
 23 26  1  0  0  0
 24 25  2  0  0  0
 24 29  1  0  0  0
 25 26  1  0  0  0
 26 27  2  0  0  0
 27 28  1  0  0  0
 28 29  2  0  0  0
M  END
>  <CHROM.0>
32.91824548,-60.67265851,-33.80295500,-64.20396861,79.41521445,-81.72549072
145.87663501,68.88241317,-130.12588294

>  <CHROM.1>
161.57072543,119.11431710,-30.12013600,-153.92587007,-131.20668858,-104.45467231
-146.35443341,-173.91638346,-37.34060523,100.13981158,7.98335906,3.64980161
20.93324197,1.72087875,-0.16151753,0.67226953

>  <FORMUL>
      4PP    C23 H24 N4 O2

>  <HET>
 4PP  C 500      29

>  <HETNAM>
     4PP (2S)-(3'-AMIDINO-3-BIPHENYL)-5-(4-PYRIDYLAMINO)PENTANOI
   2 4PP C ACID

>  <Name>
4PP.pdb

>  <RI>
0

>  <Rbt.Current_Directory>
/home/malgorzata/Desktop/rDOCK_IFD/Wyniki/7_factor_Xa

>  <Rbt.Executable>
rbdock ($Id: //depot/dev/client3/rdock/2013.1/src/exe/rbdock.cxx#4 $)

>  <Rbt.Library>
libRbt.so (2013.1, Build901 2013/11/27)

>  <Rbt.Parameter_File>
/home/malgorzata/Desktop/rDock_2013.1_src/data/scripts/soft_docking.prm

>  <Rbt.Receptor>
cavity.prm

>  <SCORE>
-38.1713

>  <SCORE.INTER>
-32.8446

>  <SCORE.INTER.CONST>
1

>  <SCORE.INTER.POLAR>
-0.728053

>  <SCORE.INTER.REPUL>
0

>  <SCORE.INTER.ROT>
9

>  <SCORE.INTER.VDW>
-44.7692

>  <SCORE.INTER.norm>
-1.13257

>  <SCORE.INTRA>
0.811724

>  <SCORE.INTRA.DIHEDRAL>
7.05768

>  <SCORE.INTRA.DIHEDRAL.0>
20.1331

>  <SCORE.INTRA.POLAR>
0

>  <SCORE.INTRA.POLAR.0>
0

>  <SCORE.INTRA.REPUL>
0

>  <SCORE.INTRA.REPUL.0>
0

>  <SCORE.INTRA.VDW>
-0.599813

>  <SCORE.INTRA.VDW.0>
0.0644272

>  <SCORE.INTRA.norm>
0.0279905

>  <SCORE.RESTR>
0

>  <SCORE.RESTR.CAVITY>
0

>  <SCORE.RESTR.norm>
0

>  <SCORE.SYSTEM>
-6.13845

>  <SCORE.SYSTEM.CONST>
0

>  <SCORE.SYSTEM.DIHEDRAL>
10.66

>  <SCORE.SYSTEM.POLAR>
-3.81023

>  <SCORE.SYSTEM.REPUL>
1.09648

>  <SCORE.SYSTEM.VDW>
-3.99606

>  <SCORE.SYSTEM.norm>
-0.211671

>  <SCORE.heavy>
29

>  <SCORE.norm>
-1.31625

$$$$
4PP.pdb
  rDOCK(R)          3D
libRbt.so/2013.1/901 2013/11/27
 34 36  0  0  0  0  0  0  0  0999 V2000
    4.4721    3.5261   22.7374 C   0  0  0  0  0  0
    3.3519    3.9636   22.4401 O   0  0  0  0  0  0
    4.5985    2.5301   23.6676 O   0  0  0  0  0  0
   10.1769   -0.6513   17.0610 N   0  0  0  0  0  0
    8.9351   -1.2545   17.3415 C   0  0  0  0  0  0
    8.0738   -0.6680   18.2918 C   0  0  0  0  0  0
    8.4526    0.5148   18.9596 C   0  0  0  0  0  0
    9.7074    1.1214   18.6712 C   0  0  0  0  0  0
   10.5606    0.5357   17.7251 C   0  0  0  0  0  0
    7.5122    1.0949   19.9546 N   0  0  0  0  0  0
    5.7151    4.1119   22.0378 C   0  0  0  0  0  0
    5.5188    4.1600   20.5204 C   0  0  0  0  0  0
    5.7160    2.7431   19.9903 C   0  0  0  0  0  0
    7.1908    2.5124   19.6805 C   0  0  0  0  0  0
    9.9315    5.7844   28.1946 N   0  0  0  0  0  0
   12.0716    6.5653   28.0079 N   0  0  0  0  0  0
   10.8479    6.4628   27.5291 C   0  0  0  0  0  0
    6.4972    8.1232   23.6308 C   0  0  0  0  0  0
    5.2380    7.8110   23.0486 C   0  0  0  0  0  0
    4.9978    6.5090   22.5382 C   0  0  0  0  0  0
    6.0128    5.5099   22.6036 C   0  0  0  0  0  0
    7.2847    5.8189   23.1875 C   0  0  0  0  0  0
    7.5300    7.1279   23.7039 C   0  0  0  0  0  0
   11.0595    8.6807   24.3401 C   0  0  0  0  0  0
    9.8077    8.3898   23.7233 C   0  0  0  0  0  0
    8.9019    7.4730   24.3466 C   0  0  0  0  0  0
    9.2615    6.8612   25.5760 C   0  0  0  0  0  0
   10.5034    7.1493   26.1937 C   0  0  0  0  0  0
   11.4074    8.0593   25.5771 C   0  0  0  0  0  0
    5.4483    2.2109   23.8998 H   0  0  0  0  0  0
    7.1430    0.5896   20.7146 H   0  0  0  0  0  0
   10.1632    5.3499   29.0471 H   0  0  0  0  0  0
   12.3047    6.1314   28.8603 H   0  0  0  0  0  0
   12.7526    7.0759   27.5131 H   0  0  0  0  0  0
  1  2  2  0  0  0
  1  3  1  0  0  0
  1 11  1  0  0  0
  3 30  1  0  0  0
  4  5  2  0  0  0
  4  9  1  0  0  0
  5  6  1  0  0  0
  6  7  2  0  0  0
  7  8  1  0  0  0
  7 10  1  0  0  0
  8  9  2  0  0  0
 10 14  1  0  0  0
 10 31  1  0  0  0
 11 12  1  0  0  0
 11 21  1  0  0  0
 12 13  1  0  0  0
 13 14  1  0  0  0
 15 17  2  0  0  0
 15 32  1  0  0  0
 16 17  1  0  0  0
 16 33  1  0  0  0
 16 34  1  0  0  0
 17 28  1  0  0  0
 18 19  2  0  0  0
 18 23  1  0  0  0
 19 20  1  0  0  0
 20 21  2  0  0  0
 21 22  1  0  0  0
 22 23  2  0  0  0
 23 26  1  0  0  0
 24 25  2  0  0  0
 24 29  1  0  0  0
 25 26  1  0  0  0
 26 27  2  0  0  0
 27 28  1  0  0  0
 28 29  2  0  0  0
M  END
>  <CHROM.0>
131.67242373,-60.67265851,-107.35292984,-108.25168896,68.82623688,-82.74581431
-24.43957619,-41.95230088,139.76759895

>  <CHROM.1>
-179.04357062,-48.65237705,-125.73094225,141.46904468,-77.16279057,-57.10687658
-88.23249892,146.76757525,-10.46261251,-68.35339452,7.93943468,4.43991346
22.48008551,1.73787032,0.15247166,-2.34841860

>  <FORMUL>
      4PP    C23 H24 N4 O2

>  <HET>
 4PP  C 500      29

>  <HETNAM>
     4PP (2S)-(3'-AMIDINO-3-BIPHENYL)-5-(4-PYRIDYLAMINO)PENTANOI
   2 4PP C ACID

>  <Name>
4PP.pdb

>  <RI>
0

>  <Rbt.Current_Directory>
/home/malgorzata/Desktop/rDOCK_IFD/Wyniki/7_factor_Xa

>  <Rbt.Executable>
rbdock ($Id: //depot/dev/client3/rdock/2013.1/src/exe/rbdock.cxx#4 $)

>  <Rbt.Library>
libRbt.so (2013.1, Build901 2013/11/27)

>  <Rbt.Parameter_File>
/home/malgorzata/Desktop/rDock_2013.1_src/data/scripts/soft_docking.prm

>  <Rbt.Receptor>
cavity.prm

>  <SCORE>
-36.9068

>  <SCORE.INTER>
-35.2064

>  <SCORE.INTER.CONST>
1

>  <SCORE.INTER.POLAR>
-2.04418

>  <SCORE.INTER.REPUL>
0.00196857

>  <SCORE.INTER.ROT>
9

>  <SCORE.INTER.VDW>
-42.666

>  <SCORE.INTER.norm>
-1.21401

>  <SCORE.INTRA>
-1.16584

>  <SCORE.INTRA.DIHEDRAL>
5.23131

>  <SCORE.INTRA.DIHEDRAL.0>
20.1331

>  <SCORE.INTRA.POLAR>
0

>  <SCORE.INTRA.POLAR.0>
0

>  <SCORE.INTRA.REPUL>
0

>  <SCORE.INTRA.REPUL.0>
0

>  <SCORE.INTRA.VDW>
-2.2121

>  <SCORE.INTRA.VDW.0>
0.0644272

>  <SCORE.INTRA.norm>
-0.0402014

>  <SCORE.RESTR>
0

>  <SCORE.RESTR.CAVITY>
0

>  <SCORE.RESTR.norm>
0

>  <SCORE.SYSTEM>
-0.534589

>  <SCORE.SYSTEM.CONST>
0

>  <SCORE.SYSTEM.DIHEDRAL>
16.9815

>  <SCORE.SYSTEM.POLAR>
-2.94814

>  <SCORE.SYSTEM.REPUL>
1.03647

>  <SCORE.SYSTEM.VDW>
-4.18403

>  <SCORE.SYSTEM.norm>
-0.0184341

>  <SCORE.heavy>
29

>  <SCORE.norm>
-1.27265

$$$$
4PP.pdb
  rDOCK(R)          3D
libRbt.so/2013.1/901 2013/11/27
 34 36  0  0  0  0  0  0  0  0999 V2000
    6.5516    2.5934   21.6846 C   0  0  0  0  0  0
    5.7010    2.8518   22.5474 O   0  0  0  0  0  0
    7.0454    1.3228   21.5621 O   0  0  0  0  0  0
    7.5457   -1.8282   15.2624 N   0  0  0  0  0  0
    6.7104   -0.8396   15.8188 C   0  0  0  0  0  0
    7.2592    0.1332   16.6798 C   0  0  0  0  0  0
    8.6359    0.1170   16.9845 C   0  0  0  0  0  0
    9.4760   -0.8826   16.4182 C   0  0  0  0  0  0
    8.9267   -1.8476   15.5619 C   0  0  0  0  0  0
    9.1681    1.1620   17.8987 N   0  0  0  0  0  0
    7.0347    3.7191   20.7480 C   0  0  0  0  0  0
    6.5470    3.4880   19.3155 C   0  0  0  0  0  0
    7.7540    3.0588   18.4870 C   0  0  0  0  0  0
    8.1606    1.6404   18.8702 C   0  0  0  0  0  0
    9.6553    5.9376   27.0191 N   0  0  0  0  0  0
   10.0838    7.9548   28.0048 N   0  0  0  0  0  0
    9.6279    7.2569   26.9839 C   0  0  0  0  0  0
    5.6039    7.5879   22.2399 C   0  0  0  0  0  0
    4.8179    6.8307   21.3283 C   0  0  0  0  0  0
    5.2922    5.5801   20.8545 C   0  0  0  0  0  0
    6.5546    5.0770   21.2857 C   0  0  0  0  0  0
    7.3523    5.8362   22.2028 C   0  0  0  0  0  0
    6.8779    7.0949   22.6834 C   0  0  0  0  0  0
    8.7641   10.0475   24.4148 C   0  0  0  0  0  0
    7.9753    9.3188   23.4772 C   0  0  0  0  0  0
    7.7295    7.9238   23.6842 C   0  0  0  0  0  0
    8.2762    7.2789   24.8246 C   0  0  0  0  0  0
    9.0585    7.9997   25.7602 C   0  0  0  0  0  0
    9.3063    9.3865   25.5578 C   0  0  0  0  0  0
    7.2450    0.8218   22.3284 H   0  0  0  0  0  0
   10.0923    1.4993   17.8613 H   0  0  0  0  0  0
   10.0215    5.4737   27.8065 H   0  0  0  0  0  0
   10.4502    7.4923   28.7929 H   0  0  0  0  0  0
   10.0579    8.9387   27.9794 H   0  0  0  0  0  0
  1  2  2  0  0  0
  1  3  1  0  0  0
  1 11  1  0  0  0
  3 30  1  0  0  0
  4  5  2  0  0  0
  4  9  1  0  0  0
  5  6  1  0  0  0
  6  7  2  0  0  0
  7  8  1  0  0  0
  7 10  1  0  0  0
  8  9  2  0  0  0
 10 14  1  0  0  0
 10 31  1  0  0  0
 11 12  1  0  0  0
 11 21  1  0  0  0
 12 13  1  0  0  0
 13 14  1  0  0  0
 15 17  2  0  0  0
 15 32  1  0  0  0
 16 17  1  0  0  0
 16 33  1  0  0  0
 16 34  1  0  0  0
 17 28  1  0  0  0
 18 19  2  0  0  0
 18 23  1  0  0  0
 19 20  1  0  0  0
 20 21  2  0  0  0
 21 22  1  0  0  0
 22 23  2  0  0  0
 23 26  1  0  0  0
 24 25  2  0  0  0
 24 29  1  0  0  0
 25 26  1  0  0  0
 26 27  2  0  0  0
 27 28  1  0  0  0
 28 29  2  0  0  0
M  END
>  <CHROM.0>
84.22910192,-60.67265851,160.84107001,152.09147758,87.26007415,143.36793857
-74.76332460,119.68901429,-177.57483381

>  <CHROM.1>
-41.11364216,-110.84860289,28.91352912,-108.74088682,-107.32378519,-90.17420434
71.84273294,170.13434816,15.20501061,-48.59580258,7.72015648,4.26697728,21.33738852
-1.64474707,-0.72879937,0.75126981

>  <FORMUL>
      4PP    C23 H24 N4 O2

>  <HET>
 4PP  C 500      29

>  <HETNAM>
     4PP (2S)-(3'-AMIDINO-3-BIPHENYL)-5-(4-PYRIDYLAMINO)PENTANOI
   2 4PP C ACID

>  <Name>
4PP.pdb

>  <RI>
0

>  <Rbt.Current_Directory>
/home/malgorzata/Desktop/rDOCK_IFD/Wyniki/7_factor_Xa

>  <Rbt.Executable>
rbdock ($Id: //depot/dev/client3/rdock/2013.1/src/exe/rbdock.cxx#4 $)

>  <Rbt.Library>
libRbt.so (2013.1, Build901 2013/11/27)

>  <Rbt.Parameter_File>
/home/malgorzata/Desktop/rDock_2013.1_src/data/scripts/soft_docking.prm

>  <Rbt.Receptor>
cavity.prm

>  <SCORE>
-26.1187

>  <SCORE.INTER>
-29.2155

>  <SCORE.INTER.CONST>
1

>  <SCORE.INTER.POLAR>
-0.875484

>  <SCORE.INTER.REPUL>
0.163415

>  <SCORE.INTER.ROT>
9

>  <SCORE.INTER.VDW>
-41.4559

>  <SCORE.INTER.norm>
-1.00743

>  <SCORE.INTRA>
1.50018

>  <SCORE.INTRA.DIHEDRAL>
5.86964

>  <SCORE.INTRA.DIHEDRAL.0>
20.1331

>  <SCORE.INTRA.POLAR>
0

>  <SCORE.INTRA.POLAR.0>
0

>  <SCORE.INTRA.REPUL>
0

>  <SCORE.INTRA.REPUL.0>
0

>  <SCORE.INTRA.VDW>
0.326252

>  <SCORE.INTRA.VDW.0>
0.0644272

>  <SCORE.INTRA.norm>
0.0517303

>  <SCORE.RESTR>
0

>  <SCORE.RESTR.CAVITY>
0

>  <SCORE.RESTR.norm>
0

>  <SCORE.SYSTEM>
1.59661

>  <SCORE.SYSTEM.CONST>
0

>  <SCORE.SYSTEM.DIHEDRAL>
16.4464

>  <SCORE.SYSTEM.POLAR>
-2.1413

>  <SCORE.SYSTEM.REPUL>
1.04227

>  <SCORE.SYSTEM.VDW>
-4.55754

>  <SCORE.SYSTEM.norm>
0.0550555

>  <SCORE.heavy>
29

>  <SCORE.norm>
-0.900646

$$$$
4PP.pdb
  rDOCK(R)          3D
libRbt.so/2013.1/901 2013/11/27
 34 36  0  0  0  0  0  0  0  0999 V2000
    4.8298    1.0121   22.1129 C   0  0  0  0  0  0
    3.9104    0.1833   22.0624 O   0  0  0  0  0  0
    6.1315    0.5943   22.1798 O   0  0  0  0  0  0
    4.1345    9.8127   25.5452 N   0  0  0  0  0  0
    3.1156    8.9459   25.9866 C   0  0  0  0  0  0
    3.1925    7.5699   25.6874 C   0  0  0  0  0  0
    4.2817    7.0631   24.9492 C   0  0  0  0  0  0
    5.3097    7.9427   24.5071 C   0  0  0  0  0  0
    5.2300    9.3100   24.8075 C   0  0  0  0  0  0
    4.3182    5.6057   24.6565 N   0  0  0  0  0  0
    4.4859    2.5150   22.0883 C   0  0  0  0  0  0
    4.0118    2.9918   23.4635 C   0  0  0  0  0  0
    3.0098    4.1191   23.2344 C   0  0  0  0  0  0
    2.9713    5.0273   24.4583 C   0  0  0  0  0  0
    8.8086   10.9060   22.5968 N   0  0  0  0  0  0
   10.3208    9.7404   21.3401 N   0  0  0  0  0  0
    9.3956    9.7671   22.2784 C   0  0  0  0  0  0
    7.9813    4.7570   20.6757 C   0  0  0  0  0  0
    7.4044    3.7372   19.8700 C   0  0  0  0  0  0
    6.2730    3.0204   20.3386 C   0  0  0  0  0  0
    5.7103    3.3151   21.6150 C   0  0  0  0  0  0
    6.2882    4.3405   22.4326 C   0  0  0  0  0  0
    7.4263    5.0654   21.9640 C   0  0  0  0  0  0
    8.8455    7.0557   25.0132 C   0  0  0  0  0  0
    8.2668    6.0056   24.2421 C   0  0  0  0  0  0
    8.0572    6.1849   22.8373 C   0  0  0  0  0  0
    8.4286    7.4108   22.2255 C   0  0  0  0  0  0
    9.0062    8.4562   22.9875 C   0  0  0  0  0  0
    9.2155    8.2826   24.3845 C   0  0  0  0  0  0
    6.7382    0.8425   21.5103 H   0  0  0  0  0  0
    5.1499    5.0817   24.6007 H   0  0  0  0  0  0
    9.0656   11.7376   22.1368 H   0  0  0  0  0  0
   10.5788   10.5712   20.8793 H   0  0  0  0  0  0
   10.7540    8.8895   21.1001 H   0  0  0  0  0  0
  1  2  2  0  0  0
  1  3  1  0  0  0
  1 11  1  0  0  0
  3 30  1  0  0  0
  4  5  2  0  0  0
  4  9  1  0  0  0
  5  6  1  0  0  0
  6  7  2  0  0  0
  7  8  1  0  0  0
  7 10  1  0  0  0
  8  9  2  0  0  0
 10 14  1  0  0  0
 10 31  1  0  0  0
 11 12  1  0  0  0
 11 21  1  0  0  0
 12 13  1  0  0  0
 13 14  1  0  0  0
 15 17  2  0  0  0
 15 32  1  0  0  0
 16 17  1  0  0  0
 16 33  1  0  0  0
 16 34  1  0  0  0
 17 28  1  0  0  0
 18 19  2  0  0  0
 18 23  1  0  0  0
 19 20  1  0  0  0
 20 21  2  0  0  0
 21 22  1  0  0  0
 22 23  2  0  0  0
 23 26  1  0  0  0
 24 25  2  0  0  0
 24 29  1  0  0  0
 25 26  1  0  0  0
 26 27  2  0  0  0
 27 28  1  0  0  0
 28 29  2  0  0  0
M  END
>  <CHROM.0>
50.09692158,-60.67265851,-178.41218793,126.26519692,172.09677567,-39.37491351
135.87679862,36.02984318,123.29595674

>  <CHROM.1>
120.24226199,78.76698398,33.55961591,135.12592121,-148.79889820,58.06674898
-154.93554086,60.77433126,116.69434462,-136.46412633,6.20096443,5.84146193
23.10967038,-2.02253337,0.51344339,0.42605805

>  <FORMUL>
      4PP    C23 H24 N4 O2

>  <HET>
 4PP  C 500      29

>  <HETNAM>
     4PP (2S)-(3'-AMIDINO-3-BIPHENYL)-5-(4-PYRIDYLAMINO)PENTANOI
   2 4PP C ACID

>  <Name>
4PP.pdb

>  <RI>
0

>  <Rbt.Current_Directory>
/home/malgorzata/Desktop/rDOCK_IFD/Wyniki/7_factor_Xa

>  <Rbt.Executable>
rbdock ($Id: //depot/dev/client3/rdock/2013.1/src/exe/rbdock.cxx#4 $)

>  <Rbt.Library>
libRbt.so (2013.1, Build901 2013/11/27)

>  <Rbt.Parameter_File>
/home/malgorzata/Desktop/rDock_2013.1_src/data/scripts/soft_docking.prm

>  <Rbt.Receptor>
cavity.prm

>  <SCORE>
-31.5482

>  <SCORE.INTER>
-31.872

>  <SCORE.INTER.CONST>
1

>  <SCORE.INTER.POLAR>
-3.44831

>  <SCORE.INTER.REPUL>
0

>  <SCORE.INTER.ROT>
9

>  <SCORE.INTER.VDW>
-34.5478

>  <SCORE.INTER.norm>
-1.09903

>  <SCORE.INTRA>
2.90328

>  <SCORE.INTRA.DIHEDRAL>
23.6942

>  <SCORE.INTRA.DIHEDRAL.0>
20.1331

>  <SCORE.INTRA.POLAR>
0

>  <SCORE.INTRA.POLAR.0>
0

>  <SCORE.INTRA.REPUL>
0

>  <SCORE.INTRA.REPUL.0>
0

>  <SCORE.INTRA.VDW>
-1.83556

>  <SCORE.INTRA.VDW.0>
0.0644272

>  <SCORE.INTRA.norm>
0.100113

>  <SCORE.RESTR>
0

>  <SCORE.RESTR.CAVITY>
0

>  <SCORE.RESTR.norm>
0

>  <SCORE.SYSTEM>
-2.57949

>  <SCORE.SYSTEM.CONST>
0

>  <SCORE.SYSTEM.DIHEDRAL>
12.0517

>  <SCORE.SYSTEM.POLAR>
-2.62481

>  <SCORE.SYSTEM.REPUL>
0.657809

>  <SCORE.SYSTEM.VDW>
-2.97004

>  <SCORE.SYSTEM.norm>
-0.0889481

>  <SCORE.heavy>
29

>  <SCORE.norm>
-1.08787

$$$$
4PP.pdb
  rDOCK(R)          3D
libRbt.so/2013.1/901 2013/11/27
 34 36  0  0  0  0  0  0  0  0999 V2000
    4.8959    4.9292   19.9032 C   0  0  0  0  0  0
    3.9404    4.8498   19.1186 O   0  0  0  0  0  0
    5.7952    5.9550   19.7926 O   0  0  0  0  0  0
    6.0225   -0.4206   15.1211 N   0  0  0  0  0  0
    7.4162   -0.2576   14.9958 C   0  0  0  0  0  0
    8.1431    0.3550   16.0375 C   0  0  0  0  0  0
    7.4799    0.8040   17.1981 C   0  0  0  0  0  0
    6.0720    0.6353   17.3208 C   0  0  0  0  0  0
    5.3530    0.0248   16.2832 C   0  0  0  0  0  0
    8.2883    1.4455   18.2686 N   0  0  0  0  0  0
    5.0485    3.8644   21.0080 C   0  0  0  0  0  0
    6.4506    3.2505   20.9882 C   0  0  0  0  0  0
    6.7418    2.8255   19.5523 C   0  0  0  0  0  0
    7.5634    1.5413   19.5544 C   0  0  0  0  0  0
   10.2455    6.9497   28.1402 N   0  0  0  0  0  0
    8.8691    5.1248   28.1363 N   0  0  0  0  0  0
    9.1614    6.3353   27.7043 C   0  0  0  0  0  0
    4.0925    5.6300   24.9078 C   0  0  0  0  0  0
    3.1507    4.7982   24.2421 C   0  0  0  0  0  0
    3.4734    4.2324   22.9814 C   0  0  0  0  0  0
    4.7372    4.4939   22.3755 C   0  0  0  0  0  0
    5.6899    5.3330   23.0405 C   0  0  0  0  0  0
    5.3696    5.9033   24.3104 C   0  0  0  0  0  0
    7.4313    9.0125   25.4744 C   0  0  0  0  0  0
    6.4741    8.2134   24.7836 C   0  0  0  0  0  0
    6.3970    6.8080   25.0453 C   0  0  0  0  0  0
    7.2779    6.2235   25.9926 C   0  0  0  0  0  0
    8.2290    7.0143   26.6832 C   0  0  0  0  0  0
    8.3099    8.4117   26.4255 C   0  0  0  0  0  0
    5.8005    6.6439   20.4276 H   0  0  0  0  0  0
    9.2077    1.7716   18.1358 H   0  0  0  0  0  0
   10.8341    6.5059   28.7928 H   0  0  0  0  0  0
    9.4568    4.6798   28.7889 H   0  0  0  0  0  0
    8.0631    4.6657   27.8065 H   0  0  0  0  0  0
  1  2  2  0  0  0
  1  3  1  0  0  0
  1 11  1  0  0  0
  3 30  1  0  0  0
  4  5  2  0  0  0
  4  9  1  0  0  0
  5  6  1  0  0  0
  6  7  2  0  0  0
  7  8  1  0  0  0
  7 10  1  0  0  0
  8  9  2  0  0  0
 10 14  1  0  0  0
 10 31  1  0  0  0
 11 12  1  0  0  0
 11 21  1  0  0  0
 12 13  1  0  0  0
 13 14  1  0  0  0
 15 17  2  0  0  0
 15 32  1  0  0  0
 16 17  1  0  0  0
 16 33  1  0  0  0
 16 34  1  0  0  0
 17 28  1  0  0  0
 18 19  2  0  0  0
 18 23  1  0  0  0
 19 20  1  0  0  0
 20 21  2  0  0  0
 21 22  1  0  0  0
 22 23  2  0  0  0
 23 26  1  0  0  0
 24 25  2  0  0  0
 24 29  1  0  0  0
 25 26  1  0  0  0
 26 27  2  0  0  0
 27 28  1  0  0  0
 28 29  2  0  0  0
M  END
>  <CHROM.0>
-145.99168882,-60.67265851,166.70216929,108.35497277,33.95643956,-83.13284647
13.10072049,7.27769474,-131.32338575

>  <CHROM.1>
107.81216816,127.65618524,-164.69732115,-86.48861664,-50.21396352,102.73739361
-144.42215302,-157.15676887,164.49238190,-93.82498613,6.51052400,4.27004463
21.87452520,1.66684214,0.35320844,-2.16237047

>  <FORMUL>
      4PP    C23 H24 N4 O2

>  <HET>
 4PP  C 500      29

>  <HETNAM>
     4PP (2S)-(3'-AMIDINO-3-BIPHENYL)-5-(4-PYRIDYLAMINO)PENTANOI
   2 4PP C ACID

>  <Name>
4PP.pdb

>  <RI>
0

>  <Rbt.Current_Directory>
/home/malgorzata/Desktop/rDOCK_IFD/Wyniki/7_factor_Xa

>  <Rbt.Executable>
rbdock ($Id: //depot/dev/client3/rdock/2013.1/src/exe/rbdock.cxx#4 $)

>  <Rbt.Library>
libRbt.so (2013.1, Build901 2013/11/27)

>  <Rbt.Parameter_File>
/home/malgorzata/Desktop/rDock_2013.1_src/data/scripts/soft_docking.prm

>  <Rbt.Receptor>
cavity.prm

>  <SCORE>
-28.7767

>  <SCORE.INTER>
-28.9334

>  <SCORE.INTER.CONST>
1

>  <SCORE.INTER.POLAR>
-2.58242

>  <SCORE.INTER.REPUL>
0

>  <SCORE.INTER.ROT>
9

>  <SCORE.INTER.VDW>
-34.5532

>  <SCORE.INTER.norm>
-0.997703

>  <SCORE.INTRA>
2.99075

>  <SCORE.INTRA.DIHEDRAL>
17.4104

>  <SCORE.INTRA.DIHEDRAL.0>
20.1331

>  <SCORE.INTRA.POLAR>
0

>  <SCORE.INTRA.POLAR.0>
0

>  <SCORE.INTRA.REPUL>
0

>  <SCORE.INTRA.REPUL.0>
0

>  <SCORE.INTRA.VDW>
-0.491333

>  <SCORE.INTRA.VDW.0>
0.0644272

>  <SCORE.INTRA.norm>
0.103129

>  <SCORE.RESTR>
0.582293

>  <SCORE.RESTR.CAVITY>
0.116459

>  <SCORE.RESTR.norm>
0.0200791

>  <SCORE.SYSTEM>
-3.41635

>  <SCORE.SYSTEM.CONST>
0

>  <SCORE.SYSTEM.DIHEDRAL>
13.2386

>  <SCORE.SYSTEM.POLAR>
-2.72655

>  <SCORE.SYSTEM.REPUL>
0.657809

>  <SCORE.SYSTEM.VDW>
-4.05444

>  <SCORE.SYSTEM.norm>
-0.117805

>  <SCORE.heavy>
29

>  <SCORE.norm>
-0.992299

$$$$
4PP.pdb
  rDOCK(R)          3D
libRbt.so/2013.1/901 2013/11/27
 34 36  0  0  0  0  0  0  0  0999 V2000
    9.9034    9.3795   24.7673 C   0  0  0  0  0  0
    9.9729   10.3866   25.4855 O   0  0  0  0  0  0
   10.6358    9.3038   23.6135 O   0  0  0  0  0  0
    8.6736    1.8899   30.5630 N   0  0  0  0  0  0
    9.4076    2.9766   31.0777 C   0  0  0  0  0  0
    9.7835    4.0322   30.2214 C   0  0  0  0  0  0
    9.4288    4.0010   28.8570 C   0  0  0  0  0  0
    8.6855    2.9018   28.3423 C   0  0  0  0  0  0
    8.3128    1.8546   29.1971 C   0  0  0  0  0  0
    9.8492    5.1357   27.9929 N   0  0  0  0  0  0
    8.9911    8.2136   25.1983 C   0  0  0  0  0  0
    8.6116    8.3315   26.6766 C   0  0  0  0  0  0
    9.6180    7.5063   27.4726 C   0  0  0  0  0  0
    8.9237    6.2870   28.0688 C   0  0  0  0  0  0
    3.9286    2.0388   24.4780 N   0  0  0  0  0  0
    2.1363    2.4784   23.1293 N   0  0  0  0  0  0
    3.4086    2.6482   23.4287 C   0  0  0  0  0  0
    5.4139    8.1958   22.6600 C   0  0  0  0  0  0
    5.8904    9.4099   23.2267 C   0  0  0  0  0  0
    7.0496    9.4016   24.0450 C   0  0  0  0  0  0
    7.7404    8.1818   24.3049 C   0  0  0  0  0  0
    7.2641    6.9546   23.7382 C   0  0  0  0  0  0
    6.0984    6.9588   22.9126 C   0  0  0  0  0  0
    5.3896    4.0577   20.3919 C   0  0  0  0  0  0
    5.8882    5.2777   20.9353 C   0  0  0  0  0  0
    5.5766    5.6364   22.2857 C   0  0  0  0  0  0
    4.7714    4.7707   23.0715 C   0  0  0  0  0  0
    4.2759    3.5562   22.5363 C   0  0  0  0  0  0
    4.5823    3.1961   21.1939 C   0  0  0  0  0  0
   10.7100   10.0530   23.0557 H   0  0  0  0  0  0
   10.6571    5.1221   27.4305 H   0  0  0  0  0  0
    3.3647    1.4608   25.0411 H   0  0  0  0  0  0
    1.5712    1.9006   23.6915 H   0  0  0  0  0  0
    1.7510    2.9293   22.3435 H   0  0  0  0  0  0
  1  2  2  0  0  0
  1  3  1  0  0  0
  1 11  1  0  0  0
  3 30  1  0  0  0
  4  5  2  0  0  0
  4  9  1  0  0  0
  5  6  1  0  0  0
  6  7  2  0  0  0
  7  8  1  0  0  0
  7 10  1  0  0  0
  8  9  2  0  0  0
 10 14  1  0  0  0
 10 31  1  0  0  0
 11 12  1  0  0  0
 11 21  1  0  0  0
 12 13  1  0  0  0
 13 14  1  0  0  0
 15 17  2  0  0  0
 15 32  1  0  0  0
 16 17  1  0  0  0
 16 33  1  0  0  0
 16 34  1  0  0  0
 17 28  1  0  0  0
 18 19  2  0  0  0
 18 23  1  0  0  0
 19 20  1  0  0  0
 20 21  2  0  0  0
 21 22  1  0  0  0
 22 23  2  0  0  0
 23 26  1  0  0  0
 24 25  2  0  0  0
 24 29  1  0  0  0
 25 26  1  0  0  0
 26 27  2  0  0  0
 27 28  1  0  0  0
 28 29  2  0  0  0
M  END
>  <CHROM.0>
68.97442853,-60.67265851,-12.75048754,90.74165132,156.49413881,-78.66474031
22.86245571,13.56598710,-159.77768212

>  <CHROM.1>
-41.40261351,-16.44419847,-83.40484167,164.73465594,-93.69683162,-46.07985839
-111.44185452,141.63973574,-67.39623244,81.60269898,7.28833010,5.71728372
25.19717495,-0.54779526,-0.81720919,-0.70136430

>  <FORMUL>
      4PP    C23 H24 N4 O2

>  <HET>
 4PP  C 500      29

>  <HETNAM>
     4PP (2S)-(3'-AMIDINO-3-BIPHENYL)-5-(4-PYRIDYLAMINO)PENTANOI
   2 4PP C ACID

>  <Name>
4PP.pdb

>  <RI>
0

>  <Rbt.Current_Directory>
/home/malgorzata/Desktop/rDOCK_IFD/Wyniki/7_factor_Xa

>  <Rbt.Executable>
rbdock ($Id: //depot/dev/client3/rdock/2013.1/src/exe/rbdock.cxx#4 $)

>  <Rbt.Library>
libRbt.so (2013.1, Build901 2013/11/27)

>  <Rbt.Parameter_File>
/home/malgorzata/Desktop/rDock_2013.1_src/data/scripts/soft_docking.prm

>  <Rbt.Receptor>
cavity.prm

>  <SCORE>
-32.4979

>  <SCORE.INTER>
-30.1075

>  <SCORE.INTER.CONST>
1

>  <SCORE.INTER.POLAR>
-0.998487

>  <SCORE.INTER.REPUL>
0.112125

>  <SCORE.INTER.ROT>
9

>  <SCORE.INTER.VDW>
-41.6733

>  <SCORE.INTER.norm>
-1.03819

>  <SCORE.INTRA>
4.2529

>  <SCORE.INTRA.DIHEDRAL>
35.1259

>  <SCORE.INTRA.DIHEDRAL.0>
20.1331

>  <SCORE.INTRA.POLAR>
0

>  <SCORE.INTRA.POLAR.0>
0

>  <SCORE.INTRA.REPUL>
0

>  <SCORE.INTRA.REPUL.0>
0

>  <SCORE.INTRA.VDW>
-2.77228

>  <SCORE.INTRA.VDW.0>
0.0644272

>  <SCORE.INTRA.norm>
0.146652

>  <SCORE.RESTR>
0

>  <SCORE.RESTR.CAVITY>
0

>  <SCORE.RESTR.norm>
0

>  <SCORE.SYSTEM>
-6.64333

>  <SCORE.SYSTEM.CONST>
0

>  <SCORE.SYSTEM.DIHEDRAL>
9.3775

>  <SCORE.SYSTEM.POLAR>
-2.84665

>  <SCORE.SYSTEM.REPUL>
0.657809

>  <SCORE.SYSTEM.VDW>
-4.94253

>  <SCORE.SYSTEM.norm>
-0.22908

>  <SCORE.heavy>
29

>  <SCORE.norm>
-1.12062

$$$$
4PP.pdb
  rDOCK(R)          3D
libRbt.so/2013.1/901 2013/11/27
 34 36  0  0  0  0  0  0  0  0999 V2000
    8.7021    8.9493   25.1795 C   0  0  0  0  0  0
    9.2586    8.6401   26.2422 O   0  0  0  0  0  0
    9.3233    9.7889   24.2949 O   0  0  0  0  0  0
    0.7158    7.9501   22.4371 N   0  0  0  0  0  0
    0.6239    7.9937   23.8421 C   0  0  0  0  0  0
    1.4827    8.8422   24.5712 C   0  0  0  0  0  0
    2.4298    9.6420   23.8991 C   0  0  0  0  0  0
    2.5174    9.5958   22.4792 C   0  0  0  0  0  0
    1.6611    8.7516   21.7580 C   0  0  0  0  0  0
    3.3148   10.5191   24.7105 N   0  0  0  0  0  0
    7.3092    8.3668   24.8660 C   0  0  0  0  0  0
    6.2338    9.4546   24.9247 C   0  0  0  0  0  0
    4.9172    8.7746   25.2875 C   0  0  0  0  0  0
    3.9435    9.8070   25.8443 C   0  0  0  0  0  0
    8.1805   -0.0461   19.6385 N   0  0  0  0  0  0
    9.1943    1.9245   19.0786 N   0  0  0  0  0  0
    8.3059    1.2594   19.7896 C   0  0  0  0  0  0
    7.3958    6.4878   20.9035 C   0  0  0  0  0  0
    7.6437    7.8806   21.0470 C   0  0  0  0  0  0
    7.6139    8.4755   22.3350 C   0  0  0  0  0  0
    7.3349    7.6851   23.4883 C   0  0  0  0  0  0
    7.0824    6.2812   23.3500 C   0  0  0  0  0  0
    7.1130    5.6782   22.0555 C   0  0  0  0  0  0
    5.6201    2.0913   22.4780 C   0  0  0  0  0  0
    5.8327    3.4903   22.6506 C   0  0  0  0  0  0
    6.8490    4.1557   21.8931 C   0  0  0  0  0  0
    7.6370    3.4125   20.9756 C   0  0  0  0  0  0
    7.4276    2.0226   20.7991 C   0  0  0  0  0  0
    6.4190    1.3568   21.5509 C   0  0  0  0  0  0
    8.8331   10.1848   23.6014 H   0  0  0  0  0  0
    3.4661   11.4719   24.5141 H   0  0  0  0  0  0
    8.7473   -0.5233   18.9902 H   0  0  0  0  0  0
    9.7618    1.4486   18.4300 H   0  0  0  0  0  0
    9.2904    2.8972   19.1960 H   0  0  0  0  0  0
  1  2  2  0  0  0
  1  3  1  0  0  0
  1 11  1  0  0  0
  3 30  1  0  0  0
  4  5  2  0  0  0
  4  9  1  0  0  0
  5  6  1  0  0  0
  6  7  2  0  0  0
  7  8  1  0  0  0
  7 10  1  0  0  0
  8  9  2  0  0  0
 10 14  1  0  0  0
 10 31  1  0  0  0
 11 12  1  0  0  0
 11 21  1  0  0  0
 12 13  1  0  0  0
 13 14  1  0  0  0
 15 17  2  0  0  0
 15 32  1  0  0  0
 16 17  1  0  0  0
 16 33  1  0  0  0
 16 34  1  0  0  0
 17 28  1  0  0  0
 18 19  2  0  0  0
 18 23  1  0  0  0
 19 20  1  0  0  0
 20 21  2  0  0  0
 21 22  1  0  0  0
 22 23  2  0  0  0
 23 26  1  0  0  0
 24 25  2  0  0  0
 24 29  1  0  0  0
 25 26  1  0  0  0
 26 27  2  0  0  0
 27 28  1  0  0  0
 28 29  2  0  0  0
M  END
>  <CHROM.0>
-77.31451253,-60.67265851,-21.44336438,-91.36626795,174.40974080,75.96135539
-32.04537190,-134.39902492,61.08010538

>  <CHROM.1>
-165.26948850,110.51493492,48.61986664,66.99680050,-152.81870044,-62.34496433
159.80579639,81.18892891,177.07808112,-139.90897271,5.98233829,6.57156221
22.86580449,-2.02332900,0.10182397,-2.61741525

>  <FORMUL>
      4PP    C23 H24 N4 O2

>  <HET>
 4PP  C 500      29

>  <HETNAM>
     4PP (2S)-(3'-AMIDINO-3-BIPHENYL)-5-(4-PYRIDYLAMINO)PENTANOI
   2 4PP C ACID

>  <Name>
4PP.pdb

>  <RI>
0

>  <Rbt.Current_Directory>
/home/malgorzata/Desktop/rDOCK_IFD/Wyniki/7_factor_Xa

>  <Rbt.Executable>
rbdock ($Id: //depot/dev/client3/rdock/2013.1/src/exe/rbdock.cxx#4 $)

>  <Rbt.Library>
libRbt.so (2013.1, Build901 2013/11/27)

>  <Rbt.Parameter_File>
/home/malgorzata/Desktop/rDock_2013.1_src/data/scripts/soft_docking.prm

>  <Rbt.Receptor>
cavity.prm

>  <SCORE>
-31.3939

>  <SCORE.INTER>
-27.8825

>  <SCORE.INTER.CONST>
1

>  <SCORE.INTER.POLAR>
-0.202725

>  <SCORE.INTER.REPUL>
0.00209946

>  <SCORE.INTER.ROT>
9

>  <SCORE.INTER.VDW>
-41.6037

>  <SCORE.INTER.norm>
-0.961466

>  <SCORE.INTRA>
-1.39153

>  <SCORE.INTRA.DIHEDRAL>
-0.0444998

>  <SCORE.INTRA.DIHEDRAL.0>
20.1331

>  <SCORE.INTRA.POLAR>
0

>  <SCORE.INTRA.POLAR.0>
0

>  <SCORE.INTRA.REPUL>
0

>  <SCORE.INTRA.REPUL.0>
0

>  <SCORE.INTRA.VDW>
-1.38263

>  <SCORE.INTRA.VDW.0>
0.0644272

>  <SCORE.INTRA.norm>
-0.0479839

>  <SCORE.RESTR>
0

>  <SCORE.RESTR.CAVITY>
0

>  <SCORE.RESTR.norm>
0

>  <SCORE.SYSTEM>
-2.1199

>  <SCORE.SYSTEM.CONST>
0

>  <SCORE.SYSTEM.DIHEDRAL>
9.42646

>  <SCORE.SYSTEM.POLAR>
-1.62385

>  <SCORE.SYSTEM.REPUL>
0.657809

>  <SCORE.SYSTEM.VDW>
-4.60107

>  <SCORE.SYSTEM.norm>
-0.0731

>  <SCORE.heavy>
29

>  <SCORE.norm>
-1.08255

$$$$
4PP.pdb
  rDOCK(R)          3D
libRbt.so/2013.1/901 2013/11/27
 34 36  0  0  0  0  0  0  0  0999 V2000
    8.1914    8.9735   23.8161 C   0  0  0  0  0  0
    7.7115    9.9165   24.4604 O   0  0  0  0  0  0
    9.0463    9.2144   22.7747 O   0  0  0  0  0  0
    5.4287    0.6329   20.9019 N   0  0  0  0  0  0
    4.7670    1.6413   21.6297 C   0  0  0  0  0  0
    5.4464    2.8378   21.9393 C   0  0  0  0  0  0
    6.7812    3.0245   21.5249 C   0  0  0  0  0  0
    7.4447    2.0034   20.7881 C   0  0  0  0  0  0
    6.7654    0.8156   20.4815 C   0  0  0  0  0  0
    7.4566    4.3017   21.8765 N   0  0  0  0  0  0
    7.8202    7.5301   24.2117 C   0  0  0  0  0  0
    8.0804    6.5604   23.0562 C   0  0  0  0  0  0
    6.8971    6.6642   22.0989 C   0  0  0  0  0  0
    6.8924    5.4649   21.1578 C   0  0  0  0  0  0
   10.8704    3.3032   31.7660 N   0  0  0  0  0  0
    9.0551    2.2974   32.7240 N   0  0  0  0  0  0
    9.6038    2.9352   31.7094 C   0  0  0  0  0  0
   10.1201    6.4162   27.7767 C   0  0  0  0  0  0
   10.5711    7.4616   26.9248 C   0  0  0  0  0  0
    9.8167    7.8127   25.7753 C   0  0  0  0  0  0
    8.6081    7.1221   25.4671 C   0  0  0  0  0  0
    8.1492    6.0663   26.3208 C   0  0  0  0  0  0
    8.9049    5.7108   27.4797 C   0  0  0  0  0  0
    6.7978    2.8013   29.0184 C   0  0  0  0  0  0
    7.2200    3.8364   28.1339 C   0  0  0  0  0  0
    8.4140    4.5735   28.4176 C   0  0  0  0  0  0
    9.1668    4.2649   29.5808 C   0  0  0  0  0  0
    8.7523    3.2354   30.4613 C   0  0  0  0  0  0
    7.5653    2.5008   30.1838 C   0  0  0  0  0  0
    9.9204    8.8778   22.7986 H   0  0  0  0  0  0
    8.1998    4.3662   22.5189 H   0  0  0  0  0  0
   11.4049    3.1059   32.5688 H   0  0  0  0  0  0
    9.5885    2.0994   33.5274 H   0  0  0  0  0  0
    8.1119    2.0190   32.6784 H   0  0  0  0  0  0
  1  2  2  0  0  0
  1  3  1  0  0  0
  1 11  1  0  0  0
  3 30  1  0  0  0
  4  5  2  0  0  0
  4  9  1  0  0  0
  5  6  1  0  0  0
  6  7  2  0  0  0
  7  8  1  0  0  0
  7 10  1  0  0  0
  8  9  2  0  0  0
 10 14  1  0  0  0
 10 31  1  0  0  0
 11 12  1  0  0  0
 11 21  1  0  0  0
 12 13  1  0  0  0
 13 14  1  0  0  0
 15 17  2  0  0  0
 15 32  1  0  0  0
 16 17  1  0  0  0
 16 33  1  0  0  0
 16 34  1  0  0  0
 17 28  1  0  0  0
 18 19  2  0  0  0
 18 23  1  0  0  0
 19 20  1  0  0  0
 20 21  2  0  0  0
 21 22  1  0  0  0
 22 23  2  0  0  0
 23 26  1  0  0  0
 24 25  2  0  0  0
 24 29  1  0  0  0
 25 26  1  0  0  0
 26 27  2  0  0  0
 27 28  1  0  0  0
 28 29  2  0  0  0
M  END
>  <CHROM.0>
-72.89544041,-60.67265851,7.75473588,-45.83758251,-174.15229478,-179.36189769
-6.19077574,-19.77807769,-99.49077526

>  <CHROM.1>
119.61804920,159.95261524,-68.47644079,143.21150845,-80.63569201,-22.34621465
-163.86485178,31.55097377,-20.79077736,-178.83297727,8.02420768,4.87202738
25.57330611,-2.29190099,1.17594137,2.31757441

>  <FORMUL>
      4PP    C23 H24 N4 O2

>  <HET>
 4PP  C 500      29

>  <HETNAM>
     4PP (2S)-(3'-AMIDINO-3-BIPHENYL)-5-(4-PYRIDYLAMINO)PENTANOI
   2 4PP C ACID

>  <Name>
4PP.pdb

>  <RI>
0

>  <Rbt.Current_Directory>
/home/malgorzata/Desktop/rDOCK_IFD/Wyniki/7_factor_Xa

>  <Rbt.Executable>
rbdock ($Id: //depot/dev/client3/rdock/2013.1/src/exe/rbdock.cxx#4 $)

>  <Rbt.Library>
libRbt.so (2013.1, Build901 2013/11/27)

>  <Rbt.Parameter_File>
/home/malgorzata/Desktop/rDock_2013.1_src/data/scripts/soft_docking.prm

>  <Rbt.Receptor>
cavity.prm

>  <SCORE>
-40.6815

>  <SCORE.INTER>
-44.4722

>  <SCORE.INTER.CONST>
1

>  <SCORE.INTER.POLAR>
-2.39788

>  <SCORE.INTER.REPUL>
0.767548

>  <SCORE.INTER.ROT>
9

>  <SCORE.INTER.VDW>
-54.5571

>  <SCORE.INTER.norm>
-1.53352

>  <SCORE.INTRA>
6.21818

>  <SCORE.INTRA.DIHEDRAL>
20.0419

>  <SCORE.INTRA.DIHEDRAL.0>
20.1331

>  <SCORE.INTRA.POLAR>
0

>  <SCORE.INTRA.POLAR.0>
0

>  <SCORE.INTRA.REPUL>
0

>  <SCORE.INTRA.REPUL.0>
0

>  <SCORE.INTRA.VDW>
2.2098

>  <SCORE.INTRA.VDW.0>
0.0644272

>  <SCORE.INTRA.norm>
0.21442

>  <SCORE.RESTR>
2.1359

>  <SCORE.RESTR.CAVITY>
0.427179

>  <SCORE.RESTR.norm>
0.0736516

>  <SCORE.SYSTEM>
-4.56337

>  <SCORE.SYSTEM.CONST>
0

>  <SCORE.SYSTEM.DIHEDRAL>
3.00036

>  <SCORE.SYSTEM.POLAR>
-1.57758

>  <SCORE.SYSTEM.REPUL>
0.657809

>  <SCORE.SYSTEM.VDW>
-3.98883

>  <SCORE.SYSTEM.norm>
-0.157358

>  <SCORE.heavy>
29

>  <SCORE.norm>
-1.40281

$$$$
4PP.pdb
  rDOCK(R)          3D
libRbt.so/2013.1/901 2013/11/27
 34 36  0  0  0  0  0  0  0  0999 V2000
    2.4522    2.3869   23.8385 C   0  0  0  0  0  0
    1.2886    2.3780   23.4132 O   0  0  0  0  0  0
    2.7709    1.7165   24.9884 O   0  0  0  0  0  0
    9.5422    0.7949   18.3102 N   0  0  0  0  0  0
    9.4187    1.6792   19.3998 C   0  0  0  0  0  0
    8.2436    2.4451   19.5465 C   0  0  0  0  0  0
    7.1978    2.3287   18.6078 C   0  0  0  0  0  0
    7.3267    1.4324   17.5098 C   0  0  0  0  0  0
    8.4962    0.6719   17.3679 C   0  0  0  0  0  0
    5.9793    3.1581   18.8034 N   0  0  0  0  0  0
    3.5326    3.1529   23.0488 C   0  0  0  0  0  0
    3.4399    2.8449   21.5522 C   0  0  0  0  0  0
    4.7917    3.1853   20.9325 C   0  0  0  0  0  0
    4.9377    2.4681   19.5951 C   0  0  0  0  0  0
    9.6782    8.4167   21.2508 N   0  0  0  0  0  0
    7.9638    9.4932   20.1896 N   0  0  0  0  0  0
    8.4530    8.9080   21.2645 C   0  0  0  0  0  0
    3.0589    7.4464   23.8111 C   0  0  0  0  0  0
    1.9230    6.5922   23.7650 C   0  0  0  0  0  0
    2.0906    5.2048   23.5188 C   0  0  0  0  0  0
    3.3924    4.6604   23.3152 C   0  0  0  0  0  0
    4.5411    5.5164   23.3585 C   0  0  0  0  0  0
    4.3769    6.9133   23.6076 C   0  0  0  0  0  0
    7.0738    9.4485   24.8615 C   0  0  0  0  0  0
    5.9316    8.5958   24.8456 C   0  0  0  0  0  0
    5.6149    7.8505   23.6650 C   0  0  0  0  0  0
    6.4442    7.9696   22.5191 C   0  0  0  0  0  0
    7.5816    8.8139   22.5314 C   0  0  0  0  0  0
    7.8997    9.5575   23.7025 C   0  0  0  0  0  0
    2.2170    1.0270   25.2977 H   0  0  0  0  0  0
    5.8767    4.0690   18.4442 H   0  0  0  0  0  0
   10.2259    8.4826   20.4354 H   0  0  0  0  0  0
    8.5103    9.5598   19.3735 H   0  0  0  0  0  0
    7.0517    9.8637   20.2028 H   0  0  0  0  0  0
  1  2  2  0  0  0
  1  3  1  0  0  0
  1 11  1  0  0  0
  3 30  1  0  0  0
  4  5  2  0  0  0
  4  9  1  0  0  0
  5  6  1  0  0  0
  6  7  2  0  0  0
  7  8  1  0  0  0
  7 10  1  0  0  0
  8  9  2  0  0  0
 10 14  1  0  0  0
 10 31  1  0  0  0
 11 12  1  0  0  0
 11 21  1  0  0  0
 12 13  1  0  0  0
 13 14  1  0  0  0
 15 17  2  0  0  0
 15 32  1  0  0  0
 16 17  1  0  0  0
 16 33  1  0  0  0
 16 34  1  0  0  0
 17 28  1  0  0  0
 18 19  2  0  0  0
 18 23  1  0  0  0
 19 20  1  0  0  0
 20 21  2  0  0  0
 21 22  1  0  0  0
 22 23  2  0  0  0
 23 26  1  0  0  0
 24 25  2  0  0  0
 24 29  1  0  0  0
 25 26  1  0  0  0
 26 27  2  0  0  0
 27 28  1  0  0  0
 28 29  2  0  0  0
M  END
>  <CHROM.0>
-139.20797339,-60.67265851,110.14140935,77.67129544,77.25957448,47.72732280
133.95722799,-122.80143669,-32.67949084

>  <CHROM.1>
20.87013854,-45.88793996,-91.46447675,112.40418271,-159.16801163,-33.95912643
160.28089900,159.91825312,-111.54877176,60.05827641,5.68070818,4.98002532
21.81249912,1.32791634,-0.59303850,-2.65889689

>  <FORMUL>
      4PP    C23 H24 N4 O2

>  <HET>
 4PP  C 500      29

>  <HETNAM>
     4PP (2S)-(3'-AMIDINO-3-BIPHENYL)-5-(4-PYRIDYLAMINO)PENTANOI
   2 4PP C ACID

>  <Name>
4PP.pdb

>  <RI>
0

>  <Rbt.Current_Directory>
/home/malgorzata/Desktop/rDOCK_IFD/Wyniki/7_factor_Xa

>  <Rbt.Executable>
rbdock ($Id: //depot/dev/client3/rdock/2013.1/src/exe/rbdock.cxx#4 $)

>  <Rbt.Library>
libRbt.so (2013.1, Build901 2013/11/27)

>  <Rbt.Parameter_File>
/home/malgorzata/Desktop/rDock_2013.1_src/data/scripts/soft_docking.prm

>  <Rbt.Receptor>
cavity.prm

>  <SCORE>
-22.7955

>  <SCORE.INTER>
-23.3198

>  <SCORE.INTER.CONST>
1

>  <SCORE.INTER.POLAR>
-1.99663

>  <SCORE.INTER.REPUL>
0

>  <SCORE.INTER.ROT>
9

>  <SCORE.INTER.VDW>
-30.9312

>  <SCORE.INTER.norm>
-0.80413

>  <SCORE.INTRA>
1.08788

>  <SCORE.INTRA.DIHEDRAL>
20.0227

>  <SCORE.INTRA.DIHEDRAL.0>
20.1331

>  <SCORE.INTRA.POLAR>
0

>  <SCORE.INTRA.POLAR.0>
0

>  <SCORE.INTRA.REPUL>
0

>  <SCORE.INTRA.REPUL.0>
0

>  <SCORE.INTRA.VDW>
-2.91667

>  <SCORE.INTRA.VDW.0>
0.0644272

>  <SCORE.INTRA.norm>
0.037513

>  <SCORE.RESTR>
0

>  <SCORE.RESTR.CAVITY>
0

>  <SCORE.RESTR.norm>
0

>  <SCORE.SYSTEM>
-0.563611

>  <SCORE.SYSTEM.CONST>
0

>  <SCORE.SYSTEM.DIHEDRAL>
12.2718

>  <SCORE.SYSTEM.POLAR>
-2.60169

>  <SCORE.SYSTEM.REPUL>
1.09668

>  <SCORE.SYSTEM.VDW>
-3.33718

>  <SCORE.SYSTEM.norm>
-0.0194348

>  <SCORE.heavy>
29

>  <SCORE.norm>
-0.786052

$$$$
4PP.pdb
  rDOCK(R)          3D
libRbt.so/2013.1/901 2013/11/27
 34 36  0  0  0  0  0  0  0  0999 V2000
    8.4953    7.7516   21.0411 C   0  0  0  0  0  0
    8.6591    7.6032   19.8221 O   0  0  0  0  0  0
    9.4665    8.3470   21.7997 O   0  0  0  0  0  0
    8.4474   -0.9175   19.6105 N   0  0  0  0  0  0
    7.1138   -0.8184   20.0534 C   0  0  0  0  0  0
    6.4958    0.4471   20.1274 C   0  0  0  0  0  0
    7.2079    1.6080   19.7619 C   0  0  0  0  0  0
    8.5544    1.5024   19.3131 C   0  0  0  0  0  0
    9.1650    0.2422   19.2401 C   0  0  0  0  0  0
    6.5148    2.9200   19.8584 N   0  0  0  0  0  0
    7.1807    7.2667   21.6848 C   0  0  0  0  0  0
    7.0941    5.7384   21.6706 C   0  0  0  0  0  0
    6.6850    5.3183   20.2622 C   0  0  0  0  0  0
    7.4521    4.0643   19.8582 C   0  0  0  0  0  0
   13.1496    7.3444   25.4032 N   0  0  0  0  0  0
   13.7582    7.0410   27.5854 N   0  0  0  0  0  0
   12.8216    7.2237   26.6762 C   0  0  0  0  0  0
    6.8219    8.8700   25.7518 C   0  0  0  0  0  0
    5.8522    9.1898   24.7621 C   0  0  0  0  0  0
    5.9797    8.6633   23.4506 C   0  0  0  0  0  0
    7.0763    7.8154   23.1171 C   0  0  0  0  0  0
    8.0579    7.4909   24.1096 C   0  0  0  0  0  0
    7.9325    8.0177   25.4314 C   0  0  0  0  0  0
    9.5953    7.0966   28.8461 C   0  0  0  0  0  0
    8.6015    7.4127   27.8741 C   0  0  0  0  0  0
    8.9856    7.6668   26.5186 C   0  0  0  0  0  0
   10.3565    7.6016   26.1561 C   0  0  0  0  0  0
   11.3471    7.2855   27.1181 C   0  0  0  0  0  0
   10.9699    7.0331   28.4671 C   0  0  0  0  0  0
   10.1788    8.7918   21.3840 H   0  0  0  0  0  0
    5.5368    3.0167   19.9162 H   0  0  0  0  0  0
   14.0952    7.3033   25.1325 H   0  0  0  0  0  0
   14.7042    6.9996   27.3161 H   0  0  0  0  0  0
   13.5118    6.9459   28.5338 H   0  0  0  0  0  0
  1  2  2  0  0  0
  1  3  1  0  0  0
  1 11  1  0  0  0
  3 30  1  0  0  0
  4  5  2  0  0  0
  4  9  1  0  0  0
  5  6  1  0  0  0
  6  7  2  0  0  0
  7  8  1  0  0  0
  7 10  1  0  0  0
  8  9  2  0  0  0
 10 14  1  0  0  0
 10 31  1  0  0  0
 11 12  1  0  0  0
 11 21  1  0  0  0
 12 13  1  0  0  0
 13 14  1  0  0  0
 15 17  2  0  0  0
 15 32  1  0  0  0
 16 17  1  0  0  0
 16 33  1  0  0  0
 16 34  1  0  0  0
 17 28  1  0  0  0
 18 19  2  0  0  0
 18 23  1  0  0  0
 19 20  1  0  0  0
 20 21  2  0  0  0
 21 22  1  0  0  0
 22 23  2  0  0  0
 23 26  1  0  0  0
 24 25  2  0  0  0
 24 29  1  0  0  0
 25 26  1  0  0  0
 26 27  2  0  0  0
 27 28  1  0  0  0
 28 29  2  0  0  0
M  END
>  <CHROM.0>
-83.38291120,-60.67265851,-102.17564511,-106.01118989,40.08690247,-83.31585865
-75.96593118,-160.26977278,-78.46526201

>  <CHROM.1>
11.91918726,68.77900903,162.29859351,-167.81038849,-78.52557973,119.38010581
140.62578719,108.00695373,-5.98259903,38.87635667,8.65838662,5.75704892,23.22581546
1.96844942,0.74414527,-2.56614789

>  <FORMUL>
      4PP    C23 H24 N4 O2

>  <HET>
 4PP  C 500      29

>  <HETNAM>
     4PP (2S)-(3'-AMIDINO-3-BIPHENYL)-5-(4-PYRIDYLAMINO)PENTANOI
   2 4PP C ACID

>  <Name>
4PP.pdb

>  <RI>
0

>  <Rbt.Current_Directory>
/home/malgorzata/Desktop/rDOCK_IFD/Wyniki/7_factor_Xa

>  <Rbt.Executable>
rbdock ($Id: //depot/dev/client3/rdock/2013.1/src/exe/rbdock.cxx#4 $)

>  <Rbt.Library>
libRbt.so (2013.1, Build901 2013/11/27)

>  <Rbt.Parameter_File>
/home/malgorzata/Desktop/rDock_2013.1_src/data/scripts/soft_docking.prm

>  <Rbt.Receptor>
cavity.prm

>  <SCORE>
-37.6945

>  <SCORE.INTER>
-35.7249

>  <SCORE.INTER.CONST>
1

>  <SCORE.INTER.POLAR>
-1.75282

>  <SCORE.INTER.REPUL>
0.116071

>  <SCORE.INTER.ROT>
9

>  <SCORE.INTER.VDW>
-44.7456

>  <SCORE.INTER.norm>
-1.23189

>  <SCORE.INTRA>
-0.656856

>  <SCORE.INTRA.DIHEDRAL>
0.206378

>  <SCORE.INTRA.DIHEDRAL.0>
20.1331

>  <SCORE.INTRA.POLAR>
0

>  <SCORE.INTRA.POLAR.0>
0

>  <SCORE.INTRA.REPUL>
0

>  <SCORE.INTRA.REPUL.0>
0

>  <SCORE.INTRA.VDW>
-0.698132

>  <SCORE.INTRA.VDW.0>
0.0644272

>  <SCORE.INTRA.norm>
-0.0226502

>  <SCORE.RESTR>
0

>  <SCORE.RESTR.CAVITY>
0

>  <SCORE.RESTR.norm>
0

>  <SCORE.SYSTEM>
-1.31277

>  <SCORE.SYSTEM.CONST>
0

>  <SCORE.SYSTEM.DIHEDRAL>
16.7656

>  <SCORE.SYSTEM.POLAR>
-2.78863

>  <SCORE.SYSTEM.REPUL>
0.666785

>  <SCORE.SYSTEM.VDW>
-3.54814

>  <SCORE.SYSTEM.norm>
-0.0452678

>  <SCORE.heavy>
29

>  <SCORE.norm>
-1.29981

$$$$
