4PP.pdb
  rDOCK(R)          3D
libRbt.so/2013.1/901 2013/11/27
 34 36  0  0  0  0  0  0  0  0999 V2000
    6.8992    4.5426   21.0368 C   0  0  0  0  0  0
    7.4754    3.7794   21.8243 O   0  0  0  0  0  0
    6.8997    4.2766   19.6942 O   0  0  0  0  0  0
    3.7085    0.4208   18.3746 N   0  0  0  0  0  0
    2.5677    1.2413   18.4728 C   0  0  0  0  0  0
    2.6233    2.4242   19.2386 C   0  0  0  0  0  0
    3.8131    2.7843   19.9044 C   0  0  0  0  0  0
    4.9636    1.9529   19.8005 C   0  0  0  0  0  0
    4.9045    0.7780   19.0373 C   0  0  0  0  0  0
    3.8230    4.0395   20.7014 N   0  0  0  0  0  0
    6.1755    5.7856   21.5925 C   0  0  0  0  0  0
    5.6270    5.5190   22.9966 C   0  0  0  0  0  0
    4.1549    5.1474   22.8477 C   0  0  0  0  0  0
    4.0349    3.7996   22.1455 C   0  0  0  0  0  0
   11.3871    6.8375   28.1162 N   0  0  0  0  0  0
    9.1207    6.9466   27.8404 N   0  0  0  0  0  0
   10.3358    7.2676   27.4435 C   0  0  0  0  0  0
    8.8985    9.2236   21.5186 C   0  0  0  0  0  0
    8.0472    8.9535   20.4120 C   0  0  0  0  0  0
    7.1702    7.8386   20.4496 C   0  0  0  0  0  0
    7.1376    6.9847   21.5907 C   0  0  0  0  0  0
    7.9944    7.2504   22.7084 C   0  0  0  0  0  0
    8.8777    8.3726   22.6752 C   0  0  0  0  0  0
   11.6185    9.9706   24.9571 C   0  0  0  0  0  0
   10.7817    9.7221   23.8301 C   0  0  0  0  0  0
    9.8057    8.6761   23.8838 C   0  0  0  0  0  0
    9.6818    7.8949   25.0625 C   0  0  0  0  0  0
   10.5096    8.1400   26.1857 C   0  0  0  0  0  0
   11.4819    9.1781   26.1364 C   0  0  0  0  0  0
    6.1050    4.3456   19.2026 H   0  0  0  0  0  0
    3.7014    4.9346   20.3098 H   0  0  0  0  0  0
   11.2638    6.2806   28.9186 H   0  0  0  0  0  0
    8.9959    6.3897   28.6426 H   0  0  0  0  0  0
    8.3377    7.2637   27.3348 H   0  0  0  0  0  0
  1  2  2  0  0  0
  1  3  1  0  0  0
  1 11  1  0  0  0
  3 30  1  0  0  0
  4  5  2  0  0  0
  4  9  1  0  0  0
  5  6  1  0  0  0
  6  7  2  0  0  0
  7  8  1  0  0  0
  7 10  1  0  0  0
  8  9  2  0  0  0
 10 14  1  0  0  0
 10 31  1  0  0  0
 11 12  1  0  0  0
 11 21  1  0  0  0
 12 13  1  0  0  0
 13 14  1  0  0  0
 15 17  2  0  0  0
 15 32  1  0  0  0
 16 17  1  0  0  0
 16 33  1  0  0  0
 16 34  1  0  0  0
 17 28  1  0  0  0
 18 19  2  0  0  0
 18 23  1  0  0  0
 19 20  1  0  0  0
 20 21  2  0  0  0
 21 22  1  0  0  0
 22 23  2  0  0  0
 23 26  1  0  0  0
 24 25  2  0  0  0
 24 29  1  0  0  0
 25 26  1  0  0  0
 26 27  2  0  0  0
 27 28  1  0  0  0
 28 29  2  0  0  0
M  END
>  <CHROM.0>
-76.24711541,-60.67265851,-150.54853070,-90.69399158,-103.78356513,-178.85688291
178.31920294,175.12667744,134.84745101

>  <CHROM.1>
134.19210735,-31.22412512,116.07410490,174.90478112,-97.37234571,91.54353127
67.72271095,-95.60818938,138.78188140,-5.83264972,7.22340793,5.78902887,22.43692784
-2.95705272,0.91593126,2.11886727

>  <FORMUL>
      4PP    C23 H24 N4 O2

>  <HET>
 4PP  C 500      29

>  <HETNAM>
     4PP (2S)-(3'-AMIDINO-3-BIPHENYL)-5-(4-PYRIDYLAMINO)PENTANOI
   2 4PP C ACID

>  <Name>
4PP.pdb

>  <RI>
0

>  <Rbt.Current_Directory>
/home/malgorzata/Desktop/rDOCK_IFD/Wyniki/7_factor_Xa

>  <Rbt.Executable>
rbdock ($Id: //depot/dev/client3/rdock/2013.1/src/exe/rbdock.cxx#4 $)

>  <Rbt.Library>
libRbt.so (2013.1, Build901 2013/11/27)

>  <Rbt.Parameter_File>
/home/malgorzata/Desktop/rDock_2013.1_src/data/scripts/soft_docking.prm

>  <Rbt.Receptor>
cavity.prm

>  <SCORE>
-24.2099

>  <SCORE.INTER>
-25.4737

>  <SCORE.INTER.CONST>
1

>  <SCORE.INTER.POLAR>
-2.2427

>  <SCORE.INTER.REPUL>
0.606798

>  <SCORE.INTER.ROT>
9

>  <SCORE.INTER.VDW>
-35.2825

>  <SCORE.INTER.norm>
-0.878403

>  <SCORE.INTRA>
1.70054

>  <SCORE.INTRA.DIHEDRAL>
19.7057

>  <SCORE.INTRA.DIHEDRAL.0>
20.1331

>  <SCORE.INTRA.POLAR>
0

>  <SCORE.INTRA.POLAR.0>
0

>  <SCORE.INTRA.REPUL>
0

>  <SCORE.INTRA.REPUL.0>
0

>  <SCORE.INTRA.VDW>
-2.2406

>  <SCORE.INTRA.VDW.0>
0.0644272

>  <SCORE.INTRA.norm>
0.0586393

>  <SCORE.RESTR>
0.0179229

>  <SCORE.RESTR.CAVITY>
0.0179229

>  <SCORE.RESTR.norm>
0.000618033

>  <SCORE.SYSTEM>
-0.4547

>  <SCORE.SYSTEM.CONST>
0

>  <SCORE.SYSTEM.DIHEDRAL>
12.1745

>  <SCORE.SYSTEM.POLAR>
-1.96605

>  <SCORE.SYSTEM.REPUL>
0.762129

>  <SCORE.SYSTEM.VDW>
-3.668

>  <SCORE.SYSTEM.norm>
-0.0156793

>  <SCORE.heavy>
29

>  <SCORE.norm>
-0.834825

$$$$
4PP.pdb
  rDOCK(R)          3D
libRbt.so/2013.1/901 2013/11/27
 34 36  0  0  0  0  0  0  0  0999 V2000
    6.6034    6.9774   20.4593 C   0  0  0  0  0  0
    7.0266    8.1397   20.3914 O   0  0  0  0  0  0
    5.9359    6.4239   19.4003 O   0  0  0  0  0  0
   10.9290    0.6795   18.0137 N   0  0  0  0  0  0
    9.6698    0.1527   17.6655 C   0  0  0  0  0  0
    8.5184    0.5831   18.3568 C   0  0  0  0  0  0
    8.6254    1.5343   19.3922 C   0  0  0  0  0  0
    9.8997    2.0650   19.7390 C   0  0  0  0  0  0
   11.0420    1.6352   19.0486 C   0  0  0  0  0  0
    7.3839    1.9559   20.0936 N   0  0  0  0  0  0
    6.8493    6.1645   21.7463 C   0  0  0  0  0  0
    8.1306    5.3344   21.6343 C   0  0  0  0  0  0
    7.9061    4.2951   20.5404 C   0  0  0  0  0  0
    7.6399    2.9339   21.1733 C   0  0  0  0  0  0
   13.0643    7.2565   25.6090 N   0  0  0  0  0  0
   13.4877    7.3506   27.8532 N   0  0  0  0  0  0
   12.6289    7.3062   26.8543 C   0  0  0  0  0  0
    6.9652    8.9226   25.1550 C   0  0  0  0  0  0
    6.0748    9.1530   24.0705 C   0  0  0  0  0  0
    6.0467    8.2520   22.9745 C   0  0  0  0  0  0
    6.9078    7.1160   22.9523 C   0  0  0  0  0  0
    7.8088    6.8793   24.0415 C   0  0  0  0  0  0
    7.8392    7.7829   25.1473 C   0  0  0  0  0  0
    9.2295    7.0887   28.7331 C   0  0  0  0  0  0
    8.3134    7.3117   27.6639 C   0  0  0  0  0  0
    8.8056    7.5330   26.3380 C   0  0  0  0  0  0
   10.2053    7.5285   26.1015 C   0  0  0  0  0  0
   11.1192    7.3048   27.1606 C   0  0  0  0  0  0
   10.6344    7.0854   28.4806 C   0  0  0  0  0  0
    5.9893    6.8213   18.5534 H   0  0  0  0  0  0
    6.4875    1.6200   19.8639 H   0  0  0  0  0  0
   14.0315    7.2578   25.4253 H   0  0  0  0  0  0
   14.4551    7.3519   27.6709 H   0  0  0  0  0  0
   13.1617    7.3824   28.7816 H   0  0  0  0  0  0
  1  2  2  0  0  0
  1  3  1  0  0  0
  1 11  1  0  0  0
  3 30  1  0  0  0
  4  5  2  0  0  0
  4  9  1  0  0  0
  5  6  1  0  0  0
  6  7  2  0  0  0
  7  8  1  0  0  0
  7 10  1  0  0  0
  8  9  2  0  0  0
 10 14  1  0  0  0
 10 31  1  0  0  0
 11 12  1  0  0  0
 11 21  1  0  0  0
 12 13  1  0  0  0
 13 14  1  0  0  0
 15 17  2  0  0  0
 15 32  1  0  0  0
 16 17  1  0  0  0
 16 33  1  0  0  0
 16 34  1  0  0  0
 17 28  1  0  0  0
 18 19  2  0  0  0
 18 23  1  0  0  0
 19 20  1  0  0  0
 20 21  2  0  0  0
 21 22  1  0  0  0
 22 23  2  0  0  0
 23 26  1  0  0  0
 24 25  2  0  0  0
 24 29  1  0  0  0
 25 26  1  0  0  0
 26 27  2  0  0  0
 27 28  1  0  0  0
 28 29  2  0  0  0
M  END
>  <CHROM.0>
-51.70337228,-60.67265851,147.09438629,-81.01687706,39.64930051,31.68849876
-6.19382994,-111.18949937,116.14185237

>  <CHROM.1>
16.13024670,-93.14319074,178.81402871,76.00581797,-65.47221321,36.34902045
-103.33074976,178.23809488,-12.95558154,61.43973048,8.80883196,5.60311980
22.92434834,1.73412676,0.57902864,-2.27590456

>  <FORMUL>
      4PP    C23 H24 N4 O2

>  <HET>
 4PP  C 500      29

>  <HETNAM>
     4PP (2S)-(3'-AMIDINO-3-BIPHENYL)-5-(4-PYRIDYLAMINO)PENTANOI
   2 4PP C ACID

>  <Name>
4PP.pdb

>  <RI>
0

>  <Rbt.Current_Directory>
/home/malgorzata/Desktop/rDOCK_IFD/Wyniki/7_factor_Xa

>  <Rbt.Executable>
rbdock ($Id: //depot/dev/client3/rdock/2013.1/src/exe/rbdock.cxx#4 $)

>  <Rbt.Library>
libRbt.so (2013.1, Build901 2013/11/27)

>  <Rbt.Parameter_File>
/home/malgorzata/Desktop/rDock_2013.1_src/data/scripts/soft_docking.prm

>  <Rbt.Receptor>
cavity.prm

>  <SCORE>
-35.9926

>  <SCORE.INTER>
-37.0271

>  <SCORE.INTER.CONST>
1

>  <SCORE.INTER.POLAR>
-1.69969

>  <SCORE.INTER.REPUL>
0

>  <SCORE.INTER.ROT>
9

>  <SCORE.INTER.VDW>
-45.6482

>  <SCORE.INTER.norm>
-1.2768

>  <SCORE.INTRA>
0.579658

>  <SCORE.INTRA.DIHEDRAL>
-4.20168

>  <SCORE.INTRA.DIHEDRAL.0>
20.1331

>  <SCORE.INTRA.POLAR>
0

>  <SCORE.INTRA.POLAR.0>
0

>  <SCORE.INTRA.REPUL>
0

>  <SCORE.INTRA.REPUL.0>
0

>  <SCORE.INTRA.VDW>
1.41999

>  <SCORE.INTRA.VDW.0>
0.0644272

>  <SCORE.INTRA.norm>
0.0199882

>  <SCORE.RESTR>
0.0189788

>  <SCORE.RESTR.CAVITY>
0.0189788

>  <SCORE.RESTR.norm>
0.000654442

>  <SCORE.SYSTEM>
0.43594

>  <SCORE.SYSTEM.CONST>
0

>  <SCORE.SYSTEM.DIHEDRAL>
13.8268

>  <SCORE.SYSTEM.POLAR>
-1.77896

>  <SCORE.SYSTEM.REPUL>
0.664806

>  <SCORE.SYSTEM.VDW>
-3.75301

>  <SCORE.SYSTEM.norm>
0.0150324

>  <SCORE.heavy>
29

>  <SCORE.norm>
-1.24112

$$$$
4PP.pdb
  rDOCK(R)          3D
libRbt.so/2013.1/901 2013/11/27
 34 36  0  0  0  0  0  0  0  0999 V2000
    6.8690    5.3608   20.1751 C   0  0  0  0  0  0
    5.8395    5.5778   19.5210 O   0  0  0  0  0  0
    8.0914    5.7220   19.6766 O   0  0  0  0  0  0
    8.9763   -1.2128   16.3823 N   0  0  0  0  0  0
    9.6695   -0.7746   17.5278 C   0  0  0  0  0  0
    8.9988    0.0044   18.4933 C   0  0  0  0  0  0
    7.6422    0.3450   18.3139 C   0  0  0  0  0  0
    6.9458   -0.1018   17.1559 C   0  0  0  0  0  0
    7.6159   -0.8769   16.1987 C   0  0  0  0  0  0
    6.9783    1.1697   19.3580 N   0  0  0  0  0  0
    6.7501    4.6900   21.5584 C   0  0  0  0  0  0
    7.9564    3.7897   21.8369 C   0  0  0  0  0  0
    7.5872    2.3803   21.3848 C   0  0  0  0  0  0
    7.8560    2.2342   19.8912 C   0  0  0  0  0  0
   13.1034    8.2613   26.7428 N   0  0  0  0  0  0
   11.3675    7.1768   27.7604 N   0  0  0  0  0  0
   11.8124    8.0004   26.8324 C   0  0  0  0  0  0
    6.2520    7.7551   24.6562 C   0  0  0  0  0  0
    5.1482    6.9581   24.2458 C   0  0  0  0  0  0
    5.3235    5.9691   23.2434 C   0  0  0  0  0  0
    6.6009    5.7697   22.6425 C   0  0  0  0  0  0
    7.7169    6.5710   23.0505 C   0  0  0  0  0  0
    7.5450    7.5666   24.0603 C   0  0  0  0  0  0
   10.0378   10.5461   24.4864 C   0  0  0  0  0  0
    8.9195    9.7781   24.0485 C   0  0  0  0  0  0
    8.7488    8.4362   24.5171 C   0  0  0  0  0  0
    9.6986    7.8828   25.4153 C   0  0  0  0  0  0
   10.8101    8.6432   25.8550 C   0  0  0  0  0  0
   10.9843    9.9773   25.3909 C   0  0  0  0  0  0
    8.6460    5.0775   19.2830 H   0  0  0  0  0  0
    6.0534    1.0229   19.6618 H   0  0  0  0  0  0
   13.7347    7.8446   27.3730 H   0  0  0  0  0  0
   11.9977    6.7594   28.3912 H   0  0  0  0  0  0
   10.4051    6.9791   27.8228 H   0  0  0  0  0  0
  1  2  2  0  0  0
  1  3  1  0  0  0
  1 11  1  0  0  0
  3 30  1  0  0  0
  4  5  2  0  0  0
  4  9  1  0  0  0
  5  6  1  0  0  0
  6  7  2  0  0  0
  7  8  1  0  0  0
  7 10  1  0  0  0
  8  9  2  0  0  0
 10 14  1  0  0  0
 10 31  1  0  0  0
 11 12  1  0  0  0
 11 21  1  0  0  0
 12 13  1  0  0  0
 13 14  1  0  0  0
 15 17  2  0  0  0
 15 32  1  0  0  0
 16 17  1  0  0  0
 16 33  1  0  0  0
 16 34  1  0  0  0
 17 28  1  0  0  0
 18 19  2  0  0  0
 18 23  1  0  0  0
 19 20  1  0  0  0
 20 21  2  0  0  0
 21 22  1  0  0  0
 22 23  2  0  0  0
 23 26  1  0  0  0
 24 25  2  0  0  0
 24 29  1  0  0  0
 25 26  1  0  0  0
 26 27  2  0  0  0
 27 28  1  0  0  0
 28 29  2  0  0  0
M  END
>  <CHROM.0>
-28.27868841,-60.67265851,59.97026794,57.68919364,145.82112552,65.20446258
-67.64901215,-32.33243575,128.29955271

>  <CHROM.1>
-100.68376161,146.42726830,39.47830342,-142.84430536,-93.06707149,105.80985922
84.67613428,-154.88254544,143.55142219,-78.96118348,8.35160892,5.05156359
22.05324513,1.77284744,0.35631925,-2.45629849

>  <FORMUL>
      4PP    C23 H24 N4 O2

>  <HET>
 4PP  C 500      29

>  <HETNAM>
     4PP (2S)-(3'-AMIDINO-3-BIPHENYL)-5-(4-PYRIDYLAMINO)PENTANOI
   2 4PP C ACID

>  <Name>
4PP.pdb

>  <RI>
0

>  <Rbt.Current_Directory>
/home/malgorzata/Desktop/rDOCK_IFD/Wyniki/7_factor_Xa

>  <Rbt.Executable>
rbdock ($Id: //depot/dev/client3/rdock/2013.1/src/exe/rbdock.cxx#4 $)

>  <Rbt.Library>
libRbt.so (2013.1, Build901 2013/11/27)

>  <Rbt.Parameter_File>
/home/malgorzata/Desktop/rDock_2013.1_src/data/scripts/soft_docking.prm

>  <Rbt.Receptor>
cavity.prm

>  <SCORE>
-33.3445

>  <SCORE.INTER>
-34.2013

>  <SCORE.INTER.CONST>
1

>  <SCORE.INTER.POLAR>
-0.819977

>  <SCORE.INTER.REPUL>
0

>  <SCORE.INTER.ROT>
9

>  <SCORE.INTER.VDW>
-45.8134

>  <SCORE.INTER.norm>
-1.17936

>  <SCORE.INTRA>
3.6167

>  <SCORE.INTRA.DIHEDRAL>
28.3754

>  <SCORE.INTRA.DIHEDRAL.0>
20.1331

>  <SCORE.INTRA.POLAR>
0

>  <SCORE.INTRA.POLAR.0>
0

>  <SCORE.INTRA.REPUL>
0

>  <SCORE.INTRA.REPUL.0>
0

>  <SCORE.INTRA.VDW>
-2.05838

>  <SCORE.INTRA.VDW.0>
0.0644272

>  <SCORE.INTRA.norm>
0.124714

>  <SCORE.RESTR>
0

>  <SCORE.RESTR.CAVITY>
0

>  <SCORE.RESTR.norm>
0

>  <SCORE.SYSTEM>
-2.75985

>  <SCORE.SYSTEM.CONST>
0

>  <SCORE.SYSTEM.DIHEDRAL>
10.7951

>  <SCORE.SYSTEM.POLAR>
-1.92484

>  <SCORE.SYSTEM.REPUL>
0.657809

>  <SCORE.SYSTEM.VDW>
-4.90202

>  <SCORE.SYSTEM.norm>
-0.0951673

>  <SCORE.heavy>
29

>  <SCORE.norm>
-1.14981

$$$$
4PP.pdb
  rDOCK(R)          3D
libRbt.so/2013.1/901 2013/11/27
 34 36  0  0  0  0  0  0  0  0999 V2000
    8.4303    6.7271   20.8086 C   0  0  0  0  0  0
    8.8434    7.4978   19.9311 O   0  0  0  0  0  0
    8.8757    5.4338   20.8556 O   0  0  0  0  0  0
    2.1137    1.0074   24.1604 N   0  0  0  0  0  0
    1.9218    2.4011   24.0889 C   0  0  0  0  0  0
    2.9802    3.2298   23.6622 C   0  0  0  0  0  0
    4.2248    2.6682   23.3104 C   0  0  0  0  0  0
    4.4131    1.2592   23.3825 C   0  0  0  0  0  0
    3.3580    0.4386   23.8063 C   0  0  0  0  0  0
    5.3112    3.5821   22.8684 N   0  0  0  0  0  0
    7.4189    7.2494   21.8487 C   0  0  0  0  0  0
    6.5922    6.1018   22.4343 C   0  0  0  0  0  0
    6.1387    5.2266   21.2699 C   0  0  0  0  0  0
    4.9324    4.3958   21.6926 C   0  0  0  0  0  0
   14.5416    7.3477   26.3830 N   0  0  0  0  0  0
   14.5127    6.1480   28.3284 N   0  0  0  0  0  0
   13.8688    6.7343   27.3391 C   0  0  0  0  0  0
    9.5337    9.4987   24.9645 C   0  0  0  0  0  0
    8.8784   10.1797   23.9020 C   0  0  0  0  0  0
    8.1968    9.4398   22.9012 C   0  0  0  0  0  0
    8.1657    8.0154   22.9528 C   0  0  0  0  0  0
    8.8258    7.3231   24.0200 C   0  0  0  0  0  0
    9.5118    8.0642   25.0302 C   0  0  0  0  0  0
   10.1684    5.9668   28.2617 C   0  0  0  0  0  0
    9.4813    6.6308   27.2039 C   0  0  0  0  0  0
   10.2245    7.3258   26.1969 C   0  0  0  0  0  0
   11.6423    7.3467   26.2632 C   0  0  0  0  0  0
   12.3293    6.6861   27.3113 C   0  0  0  0  0  0
   11.5945    5.9948   28.3151 C   0  0  0  0  0  0
    8.8176    4.9469   21.6540 H   0  0  0  0  0  0
    6.1887    3.6396   23.3109 H   0  0  0  0  0  0
   15.5254    7.3720   26.4113 H   0  0  0  0  0  0
   15.4965    6.1715   28.3579 H   0  0  0  0  0  0
   14.0099    5.6865   29.0380 H   0  0  0  0  0  0
  1  2  2  0  0  0
  1  3  1  0  0  0
  1 11  1  0  0  0
  3 30  1  0  0  0
  4  5  2  0  0  0
  4  9  1  0  0  0
  5  6  1  0  0  0
  6  7  2  0  0  0
  7  8  1  0  0  0
  7 10  1  0  0  0
  8  9  2  0  0  0
 10 14  1  0  0  0
 10 31  1  0  0  0
 11 12  1  0  0  0
 11 21  1  0  0  0
 12 13  1  0  0  0
 13 14  1  0  0  0
 15 17  2  0  0  0
 15 32  1  0  0  0
 16 17  1  0  0  0
 16 33  1  0  0  0
 16 34  1  0  0  0
 17 28  1  0  0  0
 18 19  2  0  0  0
 18 23  1  0  0  0
 19 20  1  0  0  0
 20 21  2  0  0  0
 21 22  1  0  0  0
 22 23  2  0  0  0
 23 26  1  0  0  0
 24 25  2  0  0  0
 24 29  1  0  0  0
 25 26  1  0  0  0
 26 27  2  0  0  0
 27 28  1  0  0  0
 28 29  2  0  0  0
M  END
>  <CHROM.0>
-113.11358498,-60.67265851,37.31978771,-177.85296459,60.01541292,-98.58755284
-3.57039081,156.66369187,-164.21988250

>  <CHROM.1>
158.42065238,155.64165065,-57.97140355,-176.43760505,-45.79139925,99.64804044
-159.43833636,-57.94483163,-1.91226914,110.91640980,8.20080077,5.83286994
24.20314810,-3.13782050,0.61135380,2.24982406

>  <FORMUL>
      4PP    C23 H24 N4 O2

>  <HET>
 4PP  C 500      29

>  <HETNAM>
     4PP (2S)-(3'-AMIDINO-3-BIPHENYL)-5-(4-PYRIDYLAMINO)PENTANOI
   2 4PP C ACID

>  <Name>
4PP.pdb

>  <RI>
0

>  <Rbt.Current_Directory>
/home/malgorzata/Desktop/rDOCK_IFD/Wyniki/7_factor_Xa

>  <Rbt.Executable>
rbdock ($Id: //depot/dev/client3/rdock/2013.1/src/exe/rbdock.cxx#4 $)

>  <Rbt.Library>
libRbt.so (2013.1, Build901 2013/11/27)

>  <Rbt.Parameter_File>
/home/malgorzata/Desktop/rDock_2013.1_src/data/scripts/soft_docking.prm

>  <Rbt.Receptor>
cavity.prm

>  <SCORE>
-36.8277

>  <SCORE.INTER>
-34.016

>  <SCORE.INTER.CONST>
1

>  <SCORE.INTER.POLAR>
-1.5526

>  <SCORE.INTER.REPUL>
0.00970509

>  <SCORE.INTER.ROT>
9

>  <SCORE.INTER.VDW>
-43.1857

>  <SCORE.INTER.norm>
-1.17297

>  <SCORE.INTRA>
1.4922

>  <SCORE.INTRA.DIHEDRAL>
3.62488

>  <SCORE.INTRA.DIHEDRAL.0>
20.1331

>  <SCORE.INTRA.POLAR>
0

>  <SCORE.INTRA.POLAR.0>
0

>  <SCORE.INTRA.REPUL>
0

>  <SCORE.INTRA.REPUL.0>
0

>  <SCORE.INTRA.VDW>
0.767224

>  <SCORE.INTRA.VDW.0>
0.0644272

>  <SCORE.INTRA.norm>
0.0514552

>  <SCORE.RESTR>
0.567024

>  <SCORE.RESTR.CAVITY>
0.567024

>  <SCORE.RESTR.norm>
0.0195525

>  <SCORE.SYSTEM>
-4.87087

>  <SCORE.SYSTEM.CONST>
0

>  <SCORE.SYSTEM.DIHEDRAL>
8.98938

>  <SCORE.SYSTEM.POLAR>
-2.8982

>  <SCORE.SYSTEM.REPUL>
0.902637

>  <SCORE.SYSTEM.VDW>
-4.02485

>  <SCORE.SYSTEM.norm>
-0.167961

>  <SCORE.heavy>
29

>  <SCORE.norm>
-1.26992

$$$$
4PP.pdb
  rDOCK(R)          3D
libRbt.so/2013.1/901 2013/11/27
 34 36  0  0  0  0  0  0  0  0999 V2000
   10.4996    7.7311   23.4756 C   0  0  0  0  0  0
   11.6828    7.3926   23.6173 O   0  0  0  0  0  0
   10.0506    8.1761   22.2617 O   0  0  0  0  0  0
    8.2276    2.1873   28.7270 N   0  0  0  0  0  0
    9.1286    2.8222   27.8497 C   0  0  0  0  0  0
    9.1665    4.2306   27.7881 C   0  0  0  0  0  0
    8.3068    5.0006   28.5983 C   0  0  0  0  0  0
    7.3997    4.3544   29.4844 C   0  0  0  0  0  0
    7.3657    2.9539   29.5434 C   0  0  0  0  0  0
    8.3818    6.4822   28.4970 N   0  0  0  0  0  0
    9.5428    7.6331   24.6809 C   0  0  0  0  0  0
    9.9817    8.5719   25.8074 C   0  0  0  0  0  0
    9.0949    8.2813   27.0142 C   0  0  0  0  0  0
    9.4867    6.9418   27.6276 C   0  0  0  0  0  0
    0.4526    5.2672   23.6019 N   0  0  0  0  0  0
    1.5689    3.7368   24.8811 N   0  0  0  0  0  0
    1.5594    4.6092   23.8932 C   0  0  0  0  0  0
    5.4597    8.5946   23.3989 C   0  0  0  0  0  0
    6.3297    9.6185   23.8645 C   0  0  0  0  0  0
    7.6487    9.2938   24.2750 C   0  0  0  0  0  0
    8.1081    7.9451   24.2253 C   0  0  0  0  0  0
    7.2355    6.9083   23.7589 C   0  0  0  0  0  0
    5.9075    7.2312   23.3433 C   0  0  0  0  0  0
    4.3664    4.3396   21.2134 C   0  0  0  0  0  0
    5.2658    5.3517   21.6592 C   0  0  0  0  0  0
    4.9544    6.1176   22.8280 C   0  0  0  0  0  0
    3.7491    5.8602   23.5323 C   0  0  0  0  0  0
    2.8536    4.8537   23.0942 C   0  0  0  0  0  0
    3.1586    4.0907   21.9322 C   0  0  0  0  0  0
   10.6054    8.1223   21.5085 H   0  0  0  0  0  0
    7.7623    7.0920   28.9592 H   0  0  0  0  0  0
   -0.3685    5.1027   24.1195 H   0  0  0  0  0  0
    0.7485    3.5713   25.3996 H   0  0  0  0  0  0
    2.3963    3.2505   25.1006 H   0  0  0  0  0  0
  1  2  2  0  0  0
  1  3  1  0  0  0
  1 11  1  0  0  0
  3 30  1  0  0  0
  4  5  2  0  0  0
  4  9  1  0  0  0
  5  6  1  0  0  0
  6  7  2  0  0  0
  7  8  1  0  0  0
  7 10  1  0  0  0
  8  9  2  0  0  0
 10 14  1  0  0  0
 10 31  1  0  0  0
 11 12  1  0  0  0
 11 21  1  0  0  0
 12 13  1  0  0  0
 13 14  1  0  0  0
 15 17  2  0  0  0
 15 32  1  0  0  0
 16 17  1  0  0  0
 16 33  1  0  0  0
 16 34  1  0  0  0
 17 28  1  0  0  0
 18 19  2  0  0  0
 18 23  1  0  0  0
 19 20  1  0  0  0
 20 21  2  0  0  0
 21 22  1  0  0  0
 22 23  2  0  0  0
 23 26  1  0  0  0
 24 25  2  0  0  0
 24 29  1  0  0  0
 25 26  1  0  0  0
 26 27  2  0  0  0
 27 28  1  0  0  0
 28 29  2  0  0  0
M  END
>  <CHROM.0>
-120.67153372,-60.67265851,71.47310348,70.79986295,51.11200586,-71.15947808
162.25399244,160.09992633,149.67599859

>  <CHROM.1>
7.87974508,63.46608826,-6.08814465,151.31739078,-172.88409814,-90.38745371
72.55035975,-162.48226991,89.78523848,117.93024774,6.83356042,6.10141776
24.99401050,-0.26041465,-0.43856087,-0.93976681

>  <FORMUL>
      4PP    C23 H24 N4 O2

>  <HET>
 4PP  C 500      29

>  <HETNAM>
     4PP (2S)-(3'-AMIDINO-3-BIPHENYL)-5-(4-PYRIDYLAMINO)PENTANOI
   2 4PP C ACID

>  <Name>
4PP.pdb

>  <RI>
0

>  <Rbt.Current_Directory>
/home/malgorzata/Desktop/rDOCK_IFD/Wyniki/7_factor_Xa

>  <Rbt.Executable>
rbdock ($Id: //depot/dev/client3/rdock/2013.1/src/exe/rbdock.cxx#4 $)

>  <Rbt.Library>
libRbt.so (2013.1, Build901 2013/11/27)

>  <Rbt.Parameter_File>
/home/malgorzata/Desktop/rDock_2013.1_src/data/scripts/soft_docking.prm

>  <Rbt.Receptor>
cavity.prm

>  <SCORE>
-27.0322

>  <SCORE.INTER>
-22.129

>  <SCORE.INTER.CONST>
1

>  <SCORE.INTER.POLAR>
-1.41508

>  <SCORE.INTER.REPUL>
0.551299

>  <SCORE.INTER.ROT>
9

>  <SCORE.INTER.VDW>
-34.4742

>  <SCORE.INTER.norm>
-0.763067

>  <SCORE.INTRA>
1.70347

>  <SCORE.INTRA.DIHEDRAL>
4.46207

>  <SCORE.INTRA.DIHEDRAL.0>
20.1331

>  <SCORE.INTRA.POLAR>
0

>  <SCORE.INTRA.POLAR.0>
0

>  <SCORE.INTRA.REPUL>
0

>  <SCORE.INTRA.REPUL.0>
0

>  <SCORE.INTRA.VDW>
0.811053

>  <SCORE.INTRA.VDW.0>
0.0644272

>  <SCORE.INTRA.norm>
0.0587403

>  <SCORE.RESTR>
0.341933

>  <SCORE.RESTR.CAVITY>
0.341933

>  <SCORE.RESTR.norm>
0.0117908

>  <SCORE.SYSTEM>
-6.94869

>  <SCORE.SYSTEM.CONST>
0

>  <SCORE.SYSTEM.DIHEDRAL>
7.66992

>  <SCORE.SYSTEM.POLAR>
-3.22938

>  <SCORE.SYSTEM.REPUL>
0.765772

>  <SCORE.SYSTEM.VDW>
-3.63261

>  <SCORE.SYSTEM.norm>
-0.23961

>  <SCORE.heavy>
29

>  <SCORE.norm>
-0.932146

$$$$
4PP.pdb
  rDOCK(R)          3D
libRbt.so/2013.1/901 2013/11/27
 34 36  0  0  0  0  0  0  0  0999 V2000
    6.2959    6.5460   20.7444 C   0  0  0  0  0  0
    6.0641    7.6843   21.1749 O   0  0  0  0  0  0
    5.2680    5.7439   20.3281 O   0  0  0  0  0  0
   11.5069    7.6077   26.6715 N   0  0  0  0  0  0
   10.1570    7.4333   26.3086 C   0  0  0  0  0  0
    9.6703    8.0279   25.1261 C   0  0  0  0  0  0
   10.5285    8.7945   24.3111 C   0  0  0  0  0  0
   11.8921    8.9662   24.6811 C   0  0  0  0  0  0
   12.3723    8.3725   25.8571 C   0  0  0  0  0  0
    9.9694    9.4035   23.0751 N   0  0  0  0  0  0
    7.7556    6.0540   20.6753 C   0  0  0  0  0  0
    8.6120    6.7246   21.7525 C   0  0  0  0  0  0
    8.9225    8.1390   21.2725 C   0  0  0  0  0  0
   10.2493    8.6014   21.8642 C   0  0  0  0  0  0
    9.7672   -3.0543   17.6952 N   0  0  0  0  0  0
    8.4494   -1.7565   16.3522 N   0  0  0  0  0  0
    9.3639   -1.8625   17.2955 C   0  0  0  0  0  0
    7.8018    1.6906   21.1205 C   0  0  0  0  0  0
    6.9279    2.4872   21.9103 C   0  0  0  0  0  0
    6.9222    3.8977   21.7553 C   0  0  0  0  0  0
    7.7895    4.5232   20.8123 C   0  0  0  0  0  0
    8.6739    3.7261   20.0147 C   0  0  0  0  0  0
    8.6817    2.3057   20.1665 C   0  0  0  0  0  0
   11.8377    0.9711   18.2874 C   0  0  0  0  0  0
   10.9971    1.7974   19.0891 C   0  0  0  0  0  0
    9.6300    1.4297   19.3020 C   0  0  0  0  0  0
    9.1245    0.2427   18.7099 C   0  0  0  0  0  0
    9.9569   -0.5826   17.9145 C   0  0  0  0  0  0
   11.3164   -0.2205   17.6994 C   0  0  0  0  0  0
    4.4652    6.1264   20.0327 H   0  0  0  0  0  0
    9.4668   10.2499   23.0639 H   0  0  0  0  0  0
    9.3811   -3.8654   17.2923 H   0  0  0  0  0  0
    8.0624   -2.5667   15.9484 H   0  0  0  0  0  0
    8.1532   -0.8670   16.0515 H   0  0  0  0  0  0
  1  2  2  0  0  0
  1  3  1  0  0  0
  1 11  1  0  0  0
  3 30  1  0  0  0
  4  5  2  0  0  0
  4  9  1  0  0  0
  5  6  1  0  0  0
  6  7  2  0  0  0
  7  8  1  0  0  0
  7 10  1  0  0  0
  8  9  2  0  0  0
 10 14  1  0  0  0
 10 31  1  0  0  0
 11 12  1  0  0  0
 11 21  1  0  0  0
 12 13  1  0  0  0
 13 14  1  0  0  0
 15 17  2  0  0  0
 15 32  1  0  0  0
 16 17  1  0  0  0
 16 33  1  0  0  0
 16 34  1  0  0  0
 17 28  1  0  0  0
 18 19  2  0  0  0
 18 23  1  0  0  0
 19 20  1  0  0  0
 20 21  2  0  0  0
 21 22  1  0  0  0
 22 23  2  0  0  0
 23 26  1  0  0  0
 24 25  2  0  0  0
 24 29  1  0  0  0
 25 26  1  0  0  0
 26 27  2  0  0  0
 27 28  1  0  0  0
 28 29  2  0  0  0
M  END
>  <CHROM.0>
85.56165233,-60.67265851,115.77455050,176.42045532,-163.25788139,-143.20625160
93.46507722,28.77764779,-152.94190625

>  <CHROM.1>
25.06649772,28.59866872,-97.77726442,117.42399489,-77.29045612,-40.57972994
-151.84018483,-96.42397828,-112.54623022,-136.14198697,9.13247188,4.30900680
21.08402965,1.52004069,-0.40793087,0.58198786

>  <FORMUL>
      4PP    C23 H24 N4 O2

>  <HET>
 4PP  C 500      29

>  <HETNAM>
     4PP (2S)-(3'-AMIDINO-3-BIPHENYL)-5-(4-PYRIDYLAMINO)PENTANOI
   2 4PP C ACID

>  <Name>
4PP.pdb

>  <RI>
0

>  <Rbt.Current_Directory>
/home/malgorzata/Desktop/rDOCK_IFD/Wyniki/7_factor_Xa

>  <Rbt.Executable>
rbdock ($Id: //depot/dev/client3/rdock/2013.1/src/exe/rbdock.cxx#4 $)

>  <Rbt.Library>
libRbt.so (2013.1, Build901 2013/11/27)

>  <Rbt.Parameter_File>
/home/malgorzata/Desktop/rDock_2013.1_src/data/scripts/soft_docking.prm

>  <Rbt.Receptor>
cavity.prm

>  <SCORE>
-33.1582

>  <SCORE.INTER>
-33.094

>  <SCORE.INTER.CONST>
1

>  <SCORE.INTER.POLAR>
-1.01916

>  <SCORE.INTER.REPUL>
0.032972

>  <SCORE.INTER.ROT>
9

>  <SCORE.INTER.VDW>
-44.1937

>  <SCORE.INTER.norm>
-1.14117

>  <SCORE.INTRA>
2.18682

>  <SCORE.INTRA.DIHEDRAL>
22.0263

>  <SCORE.INTRA.DIHEDRAL.0>
20.1331

>  <SCORE.INTRA.POLAR>
0

>  <SCORE.INTRA.POLAR.0>
0

>  <SCORE.INTRA.REPUL>
0

>  <SCORE.INTRA.REPUL.0>
0

>  <SCORE.INTRA.VDW>
-2.21844

>  <SCORE.INTRA.VDW.0>
0.0644272

>  <SCORE.INTRA.norm>
0.0754075

>  <SCORE.RESTR>
0

>  <SCORE.RESTR.CAVITY>
0

>  <SCORE.RESTR.norm>
0

>  <SCORE.SYSTEM>
-2.25101

>  <SCORE.SYSTEM.CONST>
0

>  <SCORE.SYSTEM.DIHEDRAL>
12.3507

>  <SCORE.SYSTEM.POLAR>
-2.12409

>  <SCORE.SYSTEM.REPUL>
0.657809

>  <SCORE.SYSTEM.VDW>
-4.4935

>  <SCORE.SYSTEM.norm>
-0.0776209

>  <SCORE.heavy>
29

>  <SCORE.norm>
-1.14339

$$$$
4PP.pdb
  rDOCK(R)          3D
libRbt.so/2013.1/901 2013/11/27
 34 36  0  0  0  0  0  0  0  0999 V2000
    9.7904    9.2088   23.7725 C   0  0  0  0  0  0
    8.9877   10.0971   24.0908 O   0  0  0  0  0  0
   10.9256    9.5231   23.0755 O   0  0  0  0  0  0
    6.7487    1.4494   28.4073 N   0  0  0  0  0  0
    7.7446    1.5496   27.4160 C   0  0  0  0  0  0
    8.5255    2.7206   27.3278 C   0  0  0  0  0  0
    8.3109    3.7870   28.2251 C   0  0  0  0  0  0
    7.3048    3.6801   29.2262 C   0  0  0  0  0  0
    6.5311    2.5138   29.3112 C   0  0  0  0  0  0
    9.1576    5.0020   28.0918 N   0  0  0  0  0  0
    9.4965    7.7516   24.1822 C   0  0  0  0  0  0
    8.8491    7.6913   25.5680 C   0  0  0  0  0  0
    8.8508    6.2307   26.0085 C   0  0  0  0  0  0
    8.4381    6.1366   27.4731 C   0  0  0  0  0  0
   11.3228    2.7070   18.5281 N   0  0  0  0  0  0
   10.8492    0.4760   18.6804 N   0  0  0  0  0  0
   10.5942    1.7232   19.0221 C   0  0  0  0  0  0
    6.9031    5.9261   21.1520 C   0  0  0  0  0  0
    6.7127    7.2797   21.5439 C   0  0  0  0  0  0
    7.5597    7.8583   22.5245 C   0  0  0  0  0  0
    8.6014    7.0898   23.1219 C   0  0  0  0  0  0
    8.7972    5.7245   22.7326 C   0  0  0  0  0  0
    7.9477    5.1388   21.7448 C   0  0  0  0  0  0
    7.5259    1.2716   21.3706 C   0  0  0  0  0  0
    7.3046    2.6160   21.7900 C   0  0  0  0  0  0
    8.1549    3.6621   21.3083 C   0  0  0  0  0  0
    9.2130    3.3482   20.4155 C   0  0  0  0  0  0
    9.4351    2.0140   19.9942 C   0  0  0  0  0  0
    8.5929    0.9707   20.4714 C   0  0  0  0  0  0
   11.0649   10.4007   22.7781 H   0  0  0  0  0  0
   10.0966    5.0465   28.3841 H   0  0  0  0  0  0
   12.0611    2.5091   17.9076 H   0  0  0  0  0  0
   11.5871    0.2767   18.0600 H   0  0  0  0  0  0
   10.3017   -0.2562   19.0456 H   0  0  0  0  0  0
  1  2  2  0  0  0
  1  3  1  0  0  0
  1 11  1  0  0  0
  3 30  1  0  0  0
  4  5  2  0  0  0
  4  9  1  0  0  0
  5  6  1  0  0  0
  6  7  2  0  0  0
  7  8  1  0  0  0
  7 10  1  0  0  0
  8  9  2  0  0  0
 10 14  1  0  0  0
 10 31  1  0  0  0
 11 12  1  0  0  0
 11 21  1  0  0  0
 12 13  1  0  0  0
 13 14  1  0  0  0
 15 17  2  0  0  0
 15 32  1  0  0  0
 16 17  1  0  0  0
 16 33  1  0  0  0
 16 34  1  0  0  0
 17 28  1  0  0  0
 18 19  2  0  0  0
 18 23  1  0  0  0
 19 20  1  0  0  0
 20 21  2  0  0  0
 21 22  1  0  0  0
 22 23  2  0  0  0
 23 26  1  0  0  0
 24 25  2  0  0  0
 24 29  1  0  0  0
 25 26  1  0  0  0
 26 27  2  0  0  0
 27 28  1  0  0  0
 28 29  2  0  0  0
M  END
>  <CHROM.0>
46.87192756,-60.67265851,-110.15136288,-30.61188265,80.33685367,-63.97646072
90.80146051,101.18612059,117.80300978

>  <CHROM.1>
-4.85672127,-36.90623880,104.57613886,-101.06386696,-168.88119000,-38.85057547
170.40425294,-146.99995589,-3.82271315,-77.96514706,8.64812400,4.71834696
23.68243370,-2.43046936,-1.34273341,-2.72058124

>  <FORMUL>
      4PP    C23 H24 N4 O2

>  <HET>
 4PP  C 500      29

>  <HETNAM>
     4PP (2S)-(3'-AMIDINO-3-BIPHENYL)-5-(4-PYRIDYLAMINO)PENTANOI
   2 4PP C ACID

>  <Name>
4PP.pdb

>  <RI>
0

>  <Rbt.Current_Directory>
/home/malgorzata/Desktop/rDOCK_IFD/Wyniki/7_factor_Xa

>  <Rbt.Executable>
rbdock ($Id: //depot/dev/client3/rdock/2013.1/src/exe/rbdock.cxx#4 $)

>  <Rbt.Library>
libRbt.so (2013.1, Build901 2013/11/27)

>  <Rbt.Parameter_File>
/home/malgorzata/Desktop/rDock_2013.1_src/data/scripts/soft_docking.prm

>  <Rbt.Receptor>
cavity.prm

>  <SCORE>
-28.0051

>  <SCORE.INTER>
-26.4253

>  <SCORE.INTER.CONST>
1

>  <SCORE.INTER.POLAR>
-2.3205

>  <SCORE.INTER.REPUL>
0

>  <SCORE.INTER.ROT>
9

>  <SCORE.INTER.VDW>
-32.9356

>  <SCORE.INTER.norm>
-0.911217

>  <SCORE.INTRA>
-1.17322

>  <SCORE.INTRA.DIHEDRAL>
5.6902

>  <SCORE.INTRA.DIHEDRAL.0>
20.1331

>  <SCORE.INTRA.POLAR>
0

>  <SCORE.INTRA.POLAR.0>
0

>  <SCORE.INTRA.REPUL>
0

>  <SCORE.INTRA.REPUL.0>
0

>  <SCORE.INTRA.VDW>
-2.31126

>  <SCORE.INTRA.VDW.0>
0.0644272

>  <SCORE.INTRA.norm>
-0.0404557

>  <SCORE.RESTR>
0.835074

>  <SCORE.RESTR.CAVITY>
0.835074

>  <SCORE.RESTR.norm>
0.0287957

>  <SCORE.SYSTEM>
-1.24168

>  <SCORE.SYSTEM.CONST>
0

>  <SCORE.SYSTEM.DIHEDRAL>
15.528

>  <SCORE.SYSTEM.POLAR>
-3.02662

>  <SCORE.SYSTEM.REPUL>
1.09438

>  <SCORE.SYSTEM.VDW>
-4.18706

>  <SCORE.SYSTEM.norm>
-0.0428165

>  <SCORE.heavy>
29

>  <SCORE.norm>
-0.965693

$$$$
4PP.pdb
  rDOCK(R)          3D
libRbt.so/2013.1/901 2013/11/27
 34 36  0  0  0  0  0  0  0  0999 V2000
    8.2571    9.9990   20.5613 C   0  0  0  0  0  0
    8.0352   10.3524   19.3948 O   0  0  0  0  0  0
    9.5428    9.9123   21.0225 O   0  0  0  0  0  0
    2.0629    8.6146   26.8772 N   0  0  0  0  0  0
    1.3019    7.8988   25.9323 C   0  0  0  0  0  0
    1.4792    8.1539   24.5567 C   0  0  0  0  0  0
    2.4114    9.1211   24.1277 C   0  0  0  0  0  0
    3.1792    9.8403   25.0863 C   0  0  0  0  0  0
    3.0008    9.5830   26.4531 C   0  0  0  0  0  0
    2.5617    9.3566   22.6673 N   0  0  0  0  0  0
    7.0661    9.6704   21.4839 C   0  0  0  0  0  0
    5.7440    9.7279   20.7145 C   0  0  0  0  0  0
    4.6589   10.1422   21.7036 C   0  0  0  0  0  0
    3.8737    8.9132   22.1476 C   0  0  0  0  0  0
    7.8976    0.0821   22.3029 N   0  0  0  0  0  0
    5.7339    0.3106   21.6022 N   0  0  0  0  0  0
    6.9703    0.7642   21.6567 C   0  0  0  0  0  0
    7.6725    5.7593   23.3748 C   0  0  0  0  0  0
    7.6155    6.9410   24.1637 C   0  0  0  0  0  0
    7.4175    8.1997   23.5392 C   0  0  0  0  0  0
    7.2768    8.2883   22.1233 C   0  0  0  0  0  0
    7.3353    7.1012   21.3224 C   0  0  0  0  0  0
    7.5329    5.8320   21.9473 C   0  0  0  0  0  0
    7.9875    3.3662   18.9496 C   0  0  0  0  0  0
    7.9483    4.5741   19.7055 C   0  0  0  0  0  0
    7.5900    4.5367   21.0910 C   0  0  0  0  0  0
    7.2762    3.2930   21.6990 C   0  0  0  0  0  0
    7.3162    2.0898   20.9522 C   0  0  0  0  0  0
    7.6708    2.1224   19.5742 C   0  0  0  0  0  0
   10.2184    9.5769   20.4666 H   0  0  0  0  0  0
    1.8628    9.7640   22.1063 H   0  0  0  0  0  0
    7.6649   -0.7639   22.7494 H   0  0  0  0  0  0
    5.4998   -0.5352   22.0482 H   0  0  0  0  0  0
    5.0445    0.8177   21.1155 H   0  0  0  0  0  0
  1  2  2  0  0  0
  1  3  1  0  0  0
  1 11  1  0  0  0
  3 30  1  0  0  0
  4  5  2  0  0  0
  4  9  1  0  0  0
  5  6  1  0  0  0
  6  7  2  0  0  0
  7  8  1  0  0  0
  7 10  1  0  0  0
  8  9  2  0  0  0
 10 14  1  0  0  0
 10 31  1  0  0  0
 11 12  1  0  0  0
 11 21  1  0  0  0
 12 13  1  0  0  0
 13 14  1  0  0  0
 15 17  2  0  0  0
 15 32  1  0  0  0
 16 17  1  0  0  0
 16 33  1  0  0  0
 16 34  1  0  0  0
 17 28  1  0  0  0
 18 19  2  0  0  0
 18 23  1  0  0  0
 19 20  1  0  0  0
 20 21  2  0  0  0
 21 22  1  0  0  0
 22 23  2  0  0  0
 23 26  1  0  0  0
 24 25  2  0  0  0
 24 29  1  0  0  0
 25 26  1  0  0  0
 26 27  2  0  0  0
 27 28  1  0  0  0
 28 29  2  0  0  0
M  END
>  <CHROM.0>
94.03575951,-60.67265851,-159.69264804,169.43116801,-49.02920502,-63.83929827
24.41014304,29.58806039,122.22556727

>  <CHROM.1>
-39.27463233,5.11200058,-111.99374036,-113.09131577,-150.10226835,116.62069380
-100.75641943,-158.92392305,-86.47368217,-156.59055537,6.01934373,6.74028074
22.27537921,-2.19937152,-0.69020050,3.11327684

>  <FORMUL>
      4PP    C23 H24 N4 O2

>  <HET>
 4PP  C 500      29

>  <HETNAM>
     4PP (2S)-(3'-AMIDINO-3-BIPHENYL)-5-(4-PYRIDYLAMINO)PENTANOI
   2 4PP C ACID

>  <Name>
4PP.pdb

>  <RI>
0

>  <Rbt.Current_Directory>
/home/malgorzata/Desktop/rDOCK_IFD/Wyniki/7_factor_Xa

>  <Rbt.Executable>
rbdock ($Id: //depot/dev/client3/rdock/2013.1/src/exe/rbdock.cxx#4 $)

>  <Rbt.Library>
libRbt.so (2013.1, Build901 2013/11/27)

>  <Rbt.Parameter_File>
/home/malgorzata/Desktop/rDock_2013.1_src/data/scripts/soft_docking.prm

>  <Rbt.Receptor>
cavity.prm

>  <SCORE>
-16.0663

>  <SCORE.INTER>
-14.3582

>  <SCORE.INTER.CONST>
1

>  <SCORE.INTER.POLAR>
-1.58212

>  <SCORE.INTER.REPUL>
1

>  <SCORE.INTER.ROT>
9

>  <SCORE.INTER.VDW>
-28.379

>  <SCORE.INTER.norm>
-0.495111

>  <SCORE.INTRA>
2.61595

>  <SCORE.INTRA.DIHEDRAL>
26.2999

>  <SCORE.INTRA.DIHEDRAL.0>
20.1331

>  <SCORE.INTRA.POLAR>
0

>  <SCORE.INTRA.POLAR.0>
0

>  <SCORE.INTRA.REPUL>
0

>  <SCORE.INTRA.REPUL.0>
0

>  <SCORE.INTRA.VDW>
-2.64403

>  <SCORE.INTRA.VDW.0>
0.0644272

>  <SCORE.INTRA.norm>
0.0902051

>  <SCORE.RESTR>
0.241827

>  <SCORE.RESTR.CAVITY>
0.241827

>  <SCORE.RESTR.norm>
0.00833885

>  <SCORE.SYSTEM>
-4.56583

>  <SCORE.SYSTEM.CONST>
0

>  <SCORE.SYSTEM.DIHEDRAL>
4.14523

>  <SCORE.SYSTEM.POLAR>
-1.77089

>  <SCORE.SYSTEM.REPUL>
0.657809

>  <SCORE.SYSTEM.VDW>
-3.90647

>  <SCORE.SYSTEM.norm>
-0.157442

>  <SCORE.heavy>
29

>  <SCORE.norm>
-0.554009

$$$$
4PP.pdb
  rDOCK(R)          3D
libRbt.so/2013.1/901 2013/11/27
 34 36  0  0  0  0  0  0  0  0999 V2000
    6.0910    3.5594   18.6650 C   0  0  0  0  0  0
    5.8656    4.7747   18.7490 O   0  0  0  0  0  0
    6.2271    2.9666   17.4389 O   0  0  0  0  0  0
   12.0067   -2.7140   17.9951 N   0  0  0  0  0  0
   11.4898   -2.1562   16.8093 C   0  0  0  0  0  0
   10.8824   -0.8840   16.8441 C   0  0  0  0  0  0
   10.7906   -0.1734   18.0587 C   0  0  0  0  0  0
   11.3161   -0.7405   19.2537 C   0  0  0  0  0  0
   11.9202   -2.0053   19.2147 C   0  0  0  0  0  0
   10.1399    1.1635   18.0461 N   0  0  0  0  0  0
    6.2260    2.7314   19.9588 C   0  0  0  0  0  0
    7.6809    2.6881   20.4330 C   0  0  0  0  0  0
    8.5637    2.6300   19.1902 C   0  0  0  0  0  0
    9.6455    1.5725   19.3788 C   0  0  0  0  0  0
    3.9868    9.0868   27.4435 N   0  0  0  0  0  0
    2.3236    8.3070   26.0831 N   0  0  0  0  0  0
    3.6062    8.4621   26.3446 C   0  0  0  0  0  0
    3.5497    4.3506   23.0337 C   0  0  0  0  0  0
    3.1668    3.2140   22.2699 C   0  0  0  0  0  0
    4.0428    2.6996   21.2790 C   0  0  0  0  0  0
    5.3060    3.3168   21.0425 C   0  0  0  0  0  0
    5.6969    4.4638   21.8077 C   0  0  0  0  0  0
    4.8187    4.9838   22.8070 C   0  0  0  0  0  0
    6.8788    7.9475   24.3054 C   0  0  0  0  0  0
    6.5306    6.8139   23.5143 C   0  0  0  0  0  0
    5.2342    6.2218   23.6489 C   0  0  0  0  0  0
    4.3066    6.7715   24.5722 C   0  0  0  0  0  0
    4.6475    7.8995   25.3585 C   0  0  0  0  0  0
    5.9356    8.4907   25.2288 C   0  0  0  0  0  0
    6.1082    2.0415   17.3500 H   0  0  0  0  0  0
   10.0480    1.7172   17.2373 H   0  0  0  0  0  0
    3.3123    9.4422   28.0664 H   0  0  0  0  0  0
    1.6481    8.6619   26.7052 H   0  0  0  0  0  0
    2.0412    7.8364   25.2658 H   0  0  0  0  0  0
  1  2  2  0  0  0
  1  3  1  0  0  0
  1 11  1  0  0  0
  3 30  1  0  0  0
  4  5  2  0  0  0
  4  9  1  0  0  0
  5  6  1  0  0  0
  6  7  2  0  0  0
  7  8  1  0  0  0
  7 10  1  0  0  0
  8  9  2  0  0  0
 10 14  1  0  0  0
 10 31  1  0  0  0
 11 12  1  0  0  0
 11 21  1  0  0  0
 12 13  1  0  0  0
 13 14  1  0  0  0
 15 17  2  0  0  0
 15 32  1  0  0  0
 16 17  1  0  0  0
 16 33  1  0  0  0
 16 34  1  0  0  0
 17 28  1  0  0  0
 18 19  2  0  0  0
 18 23  1  0  0  0
 19 20  1  0  0  0
 20 21  2  0  0  0
 21 22  1  0  0  0
 22 23  2  0  0  0
 23 26  1  0  0  0
 24 25  2  0  0  0
 24 29  1  0  0  0
 25 26  1  0  0  0
 26 27  2  0  0  0
 27 28  1  0  0  0
 28 29  2  0  0  0
M  END
>  <CHROM.0>
141.22571703,-60.67265851,-176.39414353,99.35103207,127.74397961,-90.72561270
172.64622152,-154.12636082,-63.22226318

>  <CHROM.1>
-159.34586171,-90.39498743,158.16669247,-158.30129327,-36.14829899,99.25015802
-134.67529149,158.55439535,151.49182549,175.36938817,6.85235436,3.67293146
21.28858161,1.00514185,0.31930273,-2.22393441

>  <FORMUL>
      4PP    C23 H24 N4 O2

>  <HET>
 4PP  C 500      29

>  <HETNAM>
     4PP (2S)-(3'-AMIDINO-3-BIPHENYL)-5-(4-PYRIDYLAMINO)PENTANOI
   2 4PP C ACID

>  <Name>
4PP.pdb

>  <RI>
0

>  <Rbt.Current_Directory>
/home/malgorzata/Desktop/rDOCK_IFD/Wyniki/7_factor_Xa

>  <Rbt.Executable>
rbdock ($Id: //depot/dev/client3/rdock/2013.1/src/exe/rbdock.cxx#4 $)

>  <Rbt.Library>
libRbt.so (2013.1, Build901 2013/11/27)

>  <Rbt.Parameter_File>
/home/malgorzata/Desktop/rDock_2013.1_src/data/scripts/soft_docking.prm

>  <Rbt.Receptor>
cavity.prm

>  <SCORE>
-23.138

>  <SCORE.INTER>
-23.9542

>  <SCORE.INTER.CONST>
1

>  <SCORE.INTER.POLAR>
-0.348974

>  <SCORE.INTER.REPUL>
0.00397275

>  <SCORE.INTER.ROT>
9

>  <SCORE.INTER.VDW>
-37.1875

>  <SCORE.INTER.norm>
-0.826006

>  <SCORE.INTRA>
1.8499

>  <SCORE.INTRA.DIHEDRAL>
0.807361

>  <SCORE.INTRA.DIHEDRAL.0>
20.1331

>  <SCORE.INTRA.POLAR>
0

>  <SCORE.INTRA.POLAR.0>
0

>  <SCORE.INTRA.REPUL>
0

>  <SCORE.INTRA.REPUL.0>
0

>  <SCORE.INTRA.VDW>
1.68843

>  <SCORE.INTRA.VDW.0>
0.0644272

>  <SCORE.INTRA.norm>
0.0637898

>  <SCORE.RESTR>
0

>  <SCORE.RESTR.CAVITY>
0

>  <SCORE.RESTR.norm>
0

>  <SCORE.SYSTEM>
-1.03373

>  <SCORE.SYSTEM.CONST>
0

>  <SCORE.SYSTEM.DIHEDRAL>
18.0555

>  <SCORE.SYSTEM.POLAR>
-3.7077

>  <SCORE.SYSTEM.REPUL>
1.12711

>  <SCORE.SYSTEM.VDW>
-3.09087

>  <SCORE.SYSTEM.norm>
-0.035646

>  <SCORE.heavy>
29

>  <SCORE.norm>
-0.797862

$$$$
4PP.pdb
  rDOCK(R)          3D
libRbt.so/2013.1/901 2013/11/27
 34 36  0  0  0  0  0  0  0  0999 V2000
    8.3384    8.5778   20.4134 C   0  0  0  0  0  0
    9.3329    8.7079   21.1406 O   0  0  0  0  0  0
    8.3360    9.1013   19.1488 O   0  0  0  0  0  0
    2.5380    2.0779   22.8903 N   0  0  0  0  0  0
    2.4629    2.2404   21.4930 C   0  0  0  0  0  0
    3.1471    3.3090   20.8775 C   0  0  0  0  0  0
    3.9014    4.2117   21.6550 C   0  0  0  0  0  0
    3.9757    4.0420   23.0662 C   0  0  0  0  0  0
    3.2948    2.9778   23.6744 C   0  0  0  0  0  0
    4.6038    5.3237   20.9615 N   0  0  0  0  0  0
    7.1132    7.8106   20.9499 C   0  0  0  0  0  0
    7.2613    6.3056   20.7126 C   0  0  0  0  0  0
    6.4339    5.9552   19.4797 C   0  0  0  0  0  0
    5.4333    4.8591   19.8284 C   0  0  0  0  0  0
    7.3847    4.2228   28.5129 N   0  0  0  0  0  0
    9.4013    4.2525   29.5885 N   0  0  0  0  0  0
    8.5995    4.7202   28.6528 C   0  0  0  0  0  0
    6.5178    8.7377   25.1956 C   0  0  0  0  0  0
    5.6056    9.2199   24.2170 C   0  0  0  0  0  0
    5.8094    8.9115   22.8470 C   0  0  0  0  0  0
    6.9255    8.1212   22.4438 C   0  0  0  0  0  0
    7.8494    7.6339   23.4250 C   0  0  0  0  0  0
    7.6470    7.9409   24.8053 C   0  0  0  0  0  0
   10.8376    7.4431   27.0065 C   0  0  0  0  0  0
    9.9548    7.9552   26.0113 C   0  0  0  0  0  0
    8.6369    7.4117   25.8797 C   0  0  0  0  0  0
    8.2224    6.3649   26.7442 C   0  0  0  0  0  0
    9.0956    5.8546   27.7362 C   0  0  0  0  0  0
   10.4070    6.3912   27.8700 C   0  0  0  0  0  0
    8.7750    9.9109   18.9760 H   0  0  0  0  0  0
    4.5251    6.2682   21.2281 H   0  0  0  0  0  0
    7.0785    3.4979   29.1046 H   0  0  0  0  0  0
    9.0964    3.5277   30.1809 H   0  0  0  0  0  0
   10.3052    4.6279   29.6951 H   0  0  0  0  0  0
  1  2  2  0  0  0
  1  3  1  0  0  0
  1 11  1  0  0  0
  3 30  1  0  0  0
  4  5  2  0  0  0
  4  9  1  0  0  0
  5  6  1  0  0  0
  6  7  2  0  0  0
  7  8  1  0  0  0
  7 10  1  0  0  0
  8  9  2  0  0  0
 10 14  1  0  0  0
 10 31  1  0  0  0
 11 12  1  0  0  0
 11 21  1  0  0  0
 12 13  1  0  0  0
 13 14  1  0  0  0
 15 17  2  0  0  0
 15 32  1  0  0  0
 16 17  1  0  0  0
 16 33  1  0  0  0
 16 34  1  0  0  0
 17 28  1  0  0  0
 18 19  2  0  0  0
 18 23  1  0  0  0
 19 20  1  0  0  0
 20 21  2  0  0  0
 21 22  1  0  0  0
 22 23  2  0  0  0
 23 26  1  0  0  0
 24 25  2  0  0  0
 24 29  1  0  0  0
 25 26  1  0  0  0
 26 27  2  0  0  0
 27 28  1  0  0  0
 28 29  2  0  0  0
M  END
>  <CHROM.0>
52.15730354,-60.67265851,160.06047934,-3.41305958,-146.84796307,60.28840510
129.15929658,5.81529124,36.66130182

>  <CHROM.1>
-35.33104983,-85.95782707,-51.32738743,-161.99682296,-100.14998597,110.06617344
-124.37077696,56.42625101,0.47581227,-107.88606218,6.88279127,6.22736409
23.64540745,-2.41444389,0.75961534,2.05644596

>  <FORMUL>
      4PP    C23 H24 N4 O2

>  <HET>
 4PP  C 500      29

>  <HETNAM>
     4PP (2S)-(3'-AMIDINO-3-BIPHENYL)-5-(4-PYRIDYLAMINO)PENTANOI
   2 4PP C ACID

>  <Name>
4PP.pdb

>  <RI>
0

>  <Rbt.Current_Directory>
/home/malgorzata/Desktop/rDOCK_IFD/Wyniki/7_factor_Xa

>  <Rbt.Executable>
rbdock ($Id: //depot/dev/client3/rdock/2013.1/src/exe/rbdock.cxx#4 $)

>  <Rbt.Library>
libRbt.so (2013.1, Build901 2013/11/27)

>  <Rbt.Parameter_File>
/home/malgorzata/Desktop/rDock_2013.1_src/data/scripts/soft_docking.prm

>  <Rbt.Receptor>
cavity.prm

>  <SCORE>
-28.3387

>  <SCORE.INTER>
-28.5214

>  <SCORE.INTER.CONST>
1

>  <SCORE.INTER.POLAR>
-1.74777

>  <SCORE.INTER.REPUL>
0.548963

>  <SCORE.INTER.ROT>
9

>  <SCORE.INTER.VDW>
-39.7238

>  <SCORE.INTER.norm>
-0.983496

>  <SCORE.INTRA>
0.759163

>  <SCORE.INTRA.DIHEDRAL>
14.5447

>  <SCORE.INTRA.DIHEDRAL.0>
20.1331

>  <SCORE.INTRA.POLAR>
0

>  <SCORE.INTRA.POLAR.0>
0

>  <SCORE.INTRA.REPUL>
0

>  <SCORE.INTRA.REPUL.0>
0

>  <SCORE.INTRA.VDW>
-2.14978

>  <SCORE.INTRA.VDW.0>
0.0644272

>  <SCORE.INTRA.norm>
0.026178

>  <SCORE.RESTR>
0.0667762

>  <SCORE.RESTR.CAVITY>
0.0667762

>  <SCORE.RESTR.norm>
0.00230263

>  <SCORE.SYSTEM>
-0.643206

>  <SCORE.SYSTEM.CONST>
0

>  <SCORE.SYSTEM.DIHEDRAL>
13.1027

>  <SCORE.SYSTEM.POLAR>
-1.98021

>  <SCORE.SYSTEM.REPUL>
0.657809

>  <SCORE.SYSTEM.VDW>
-3.7509

>  <SCORE.SYSTEM.norm>
-0.0221795

>  <SCORE.heavy>
29

>  <SCORE.norm>
-0.977195

$$$$
