FXV.pdb
 OpenBabel10022017433D

 60 62  0  0  1  0  0  0  0  0999 V2000
    6.6430    0.2470   17.8810 C   0  0  0  0  0  0  0  0  0  0  0  0
    7.3750    0.8760   18.9420 C   0  0  1  0  0  0  0  0  0  0  0  0
    8.7800    0.5740   19.0640 C   0  0  0  0  0  0  0  0  0  0  0  0
    9.4060   -0.3310   18.1450 C   0  0  0  0  0  0  0  0  0  0  0  0
    8.6940   -0.9280   17.1340 N   0  0  0  0  0  0  0  0  0  0  0  0
    7.3370   -0.6420   17.0070 C   0  0  0  0  0  0  0  0  0  0  0  0
    6.7400    3.9330   21.2570 C   0  0  0  0  0  0  0  0  0  0  0  0
    5.3630    3.6970   21.6850 C   0  0  0  0  0  0  0  0  0  0  0  0
    4.6930    2.5190   21.1940 C   0  0  0  0  0  0  0  0  0  0  0  0
    5.3450    1.6040   20.3140 C   0  0  0  0  0  0  0  0  0  0  0  0
    6.6950    1.8250   19.8820 C   0  0  0  0  0  0  0  0  0  0  0  0
    7.3700    2.9970   20.3700 C   0  0  0  0  0  0  0  0  0  0  0  0
    4.6220    4.5930   22.5660 C   0  0  0  0  0  0  0  0  0  0  0  0
    5.0990    5.8520   22.6160 N   0  0  0  0  0  0  0  0  0  0  0  0
    4.4840    6.8990   23.3920 C   0  0  2  0  0  0  0  0  0  0  0  0
    3.8060    7.8740   22.4050 C   0  0  0  0  0  0  0  0  0  0  0  0
    5.5890    7.5560   24.3010 C   0  0  2  0  0  0  0  0  0  0  0  0
    4.9640    8.6890   25.1360 C   0  0  0  0  0  0  0  0  0  0  0  0
    3.8600    8.2640   25.8080 O   0  0  0  0  0  0  0  0  0  0  0  0
    6.8610    8.0770   23.4910 C   0  0  0  0  0  0  0  0  0  0  0  0
    8.4840    7.4690   25.4770 C   0  0  0  0  0  0  0  0  0  0  0  0
    9.7170    7.6990   26.2280 C   0  0  0  0  0  0  0  0  0  0  0  0
   10.6090    8.7590   25.7890 C   0  0  0  0  0  0  0  0  0  0  0  0
   10.2870    9.5570   24.6450 C   0  0  0  0  0  0  0  0  0  0  0  0
    9.0690    9.3220   23.9130 C   0  0  0  0  0  0  0  0  0  0  0  0
    8.1480    8.2810   24.3060 C   0  0  0  0  0  0  0  0  0  0  0  0
   10.0580    6.8890   27.4000 C   0  0  0  0  0  0  0  0  0  0  0  0
   11.3210    6.7490   27.8130 N   0  0  0  0  0  0  0  0  0  0  0  0
    9.0740    6.2750   28.0810 N   0  0  0  0  0  0  0  0  0  0  0  0
    5.3900    9.7910   25.1720 O   0  0  0  0  0  0  0  0  0  0  0  0
    3.6160    4.2310   23.2050 O   0  0  0  0  0  0  0  0  0  0  0  0
    3.0950    9.1320   26.6480 C   0  0  0  0  0  0  0  0  0  0  0  0
    9.2870   -1.7890   16.2600 O   0  0  0  0  0  0  0  0  0  0  0  0
    5.6361    0.4334   17.7525 H   0  0  0  0  0  0  0  0  0  0  0  0
    9.3366    1.0108   19.8153 H   0  0  0  0  0  0  0  0  0  0  0  0
   10.4120   -0.5379   18.2453 H   0  0  0  0  0  0  0  0  0  0  0  0
    6.8084   -1.0944   16.2448 H   0  0  0  0  0  0  0  0  0  0  0  0
    7.2541    4.7640   21.5890 H   0  0  0  0  0  0  0  0  0  0  0  0
    3.7205    2.3332   21.4852 H   0  0  0  0  0  0  0  0  0  0  0  0
    4.8367    0.7692   19.9828 H   0  0  0  0  0  0  0  0  0  0  0  0
    8.3424    3.1714   20.0717 H   0  0  0  0  0  0  0  0  0  0  0  0
    5.9074    6.0673   22.0969 H   0  0  0  0  0  0  0  0  0  0  0  0
    3.7229    6.5434   24.0547 H   0  0  0  0  0  0  0  0  0  0  0  0
    4.5359    8.2544   21.7214 H   0  0  0  0  0  0  0  0  0  0  0  0
    3.3694    8.6856   22.9487 H   0  0  0  0  0  0  0  0  0  0  0  0
    3.0429    7.3576   21.8611 H   0  0  0  0  0  0  0  0  0  0  0  0
    5.9587    6.7878   24.9475 H   0  0  0  0  0  0  0  0  0  0  0  0
    6.6033    9.0160   23.0474 H   0  0  0  0  0  0  0  0  0  0  0  0
    7.0878    7.3043   22.7865 H   0  0  0  0  0  0  0  0  0  0  0  0
    7.8393    6.7213   25.7775 H   0  0  0  0  0  0  0  0  0  0  0  0
   11.4833    8.9382   26.3072 H   0  0  0  0  0  0  0  0  0  0  0  0
   10.9311   10.3047   24.3431 H   0  0  0  0  0  0  0  0  0  0  0  0
    8.8502    9.9083   23.0924 H   0  0  0  0  0  0  0  0  0  0  0  0
   12.0509    7.1930   27.3238 H   0  0  0  0  0  0  0  0  0  0  0  0
    8.1390    6.3697   27.7876 H   0  0  0  0  0  0  0  0  0  0  0  0
    9.2887    5.7308   28.8729 H   0  0  0  0  0  0  0  0  0  0  0  0
    2.2770    8.5881   27.0722 H   0  0  0  0  0  0  0  0  0  0  0  0
    2.7180    9.9484   26.0681 H   0  0  0  0  0  0  0  0  0  0  0  0
    3.7175    9.5091   27.4323 H   0  0  0  0  0  0  0  0  0  0  0  0
   10.2266   -1.8800   16.4831 H   0  0  0  0  0  0  0  0  0  0  0  0
  1  2  1  0  0  0  0
  1  6  2  0  0  0  0
  1 34  1  0  0  0  0
  2  3  1  0  0  0  0
  2 11  1  6  0  0  0
  3  4  2  0  0  0  0
  3 35  1  0  0  0  0
  4  5  1  0  0  0  0
  4 36  1  0  0  0  0
  5  6  1  0  0  0  0
  5 33  1  0  0  0  0
  6 37  1  0  0  0  0
  7  8  2  0  0  0  0
  7 12  1  0  0  0  0
  7 38  1  0  0  0  0
  8  9  1  0  0  0  0
  8 13  1  0  0  0  0
  9 10  2  0  0  0  0
  9 39  1  0  0  0  0
 10 11  1  0  0  0  0
 10 40  1  0  0  0  0
 11 12  2  0  0  0  0
 12 41  1  0  0  0  0
 13 14  1  0  0  0  0
 13 31  2  0  0  0  0
 14 15  1  0  0  0  0
 14 42  1  0  0  0  0
 15 16  1  0  0  0  0
 15 17  1  0  0  0  0
 15 43  1  1  0  0  0
 16 44  1  0  0  0  0
 16 45  1  0  0  0  0
 16 46  1  0  0  0  0
 17 18  1  0  0  0  0
 17 20  1  0  0  0  0
 17 47  1  1  0  0  0
 18 19  1  0  0  0  0
 18 30  2  0  0  0  0
 19 32  1  0  0  0  0
 20 26  1  0  0  0  0
 20 48  1  0  0  0  0
 20 49  1  0  0  0  0
 21 22  2  0  0  0  0
 21 26  1  0  0  0  0
 21 50  1  0  0  0  0
 22 23  1  0  0  0  0
 22 27  1  0  0  0  0
 23 24  2  0  0  0  0
 23 51  1  0  0  0  0
 24 25  1  0  0  0  0
 24 52  1  0  0  0  0
 25 26  2  0  0  0  0
 25 53  1  0  0  0  0
 27 28  2  0  0  0  0
 27 29  1  0  0  0  0
 28 54  1  0  0  0  0
 29 55  1  0  0  0  0
 29 56  1  0  0  0  0
 32 57  1  0  0  0  0
 32 58  1  0  0  0  0
 32 59  1  0  0  0  0
 33 60  1  0  0  0  0
M  END
>  <HET>
 FXV  A 401      33

>  <HETSYN>
     FXV FXV673

>  <HETNAM>
     FXV METHYL-3-(4'-N-OXOPYRIDYLPHENOYL)-3-METHYL-2-(M-AMIDINO
   2 FXV BENZYL)-PROPIONATE

>  <FORMUL>
      FXV    C25 H27 N4 O4 1+

$$$$
