@<TRIPOS>MOLECULE
pose2.pdb
 54 56 0 0 0
SMALL
GASTEIGER

@<TRIPOS>ATOM
      1  C1         8.7720    9.7100   24.5070 C.2     1  LIG1        0.3122
      2  O1         9.6980   10.4330   24.8980 O.2     1  LIG1       -0.2503
      3  O2         8.1870    9.9360   23.2910 O.3     1  LIG1       -0.4802
      4  N1         7.5690    3.0850   28.3120 N.ar    1  LIG1       -0.2631
      5  C2         7.4040    4.0220   27.2740 C.ar    1  LIG1        0.0293
      6  C3         7.8030    5.3610   27.4730 C.ar    1  LIG1       -0.0227
      7  C4         8.3610    5.7600   28.7040 C.ar    1  LIG1        0.0300
      8  C5         8.5270    4.8090   29.7500 C.ar    1  LIG1       -0.0227
      9  C6         8.1300    3.4790   29.5480 C.ar    1  LIG1        0.0293
     10  N2         8.7650    7.1820   28.8670 N.pl3   1  LIG1       -0.3438
     11  C7         8.2980    8.5490   25.4050 C.3     1  LIG1        0.0813
     12  C8         8.7180    8.7740   26.8600 C.3     1  LIG1       -0.0346
     13  C9        10.0840    8.1220   27.0460 C.3     1  LIG1       -0.0364
     14  C10       10.1470    7.4420   28.4080 C.3     1  LIG1        0.0091
     15  N3         3.1950    2.2830   24.7170 N.pl3   1  LIG1       -0.2497
     16  N4         3.0550    1.5620   22.5520 N.2     1  LIG1       -0.2884
     17  C11        3.1950    2.5420   23.4220 C.2     1  LIG1        0.2662
     18  C12        3.9380    8.1620   25.1140 C.ar    1  LIG1       -0.0540
     19  C13        4.5210    9.1090   26.0010 C.ar    1  LIG1       -0.0609
     20  C14        5.9330    9.2240   26.0840 C.ar    1  LIG1       -0.0577
     21  C15        6.7730    8.3950   25.2850 C.ar    1  LIG1       -0.0331
     22  C16        6.1920    7.4380   24.3910 C.ar    1  LIG1       -0.0501
     23  C17        4.7710    7.3190   24.3030 C.ar    1  LIG1       -0.0176
     24  C18        3.1240    5.6990   21.1510 C.ar    1  LIG1       -0.0604
     25  C19        3.7120    6.6680   22.0140 C.ar    1  LIG1       -0.0540
     26  C20        4.1280    6.2910   23.3310 C.ar    1  LIG1       -0.0171
     27  C21        3.9490    4.9510   23.7640 C.ar    1  LIG1       -0.0393
     28  C22        3.3660    3.9840   22.9090 C.ar    1  LIG1        0.0614
     29  C23        2.9500    4.3550   21.5990 C.ar    1  LIG1       -0.0470
     30  H1         8.3140   10.7550   22.8550 H       1  LIG1        0.2951
     31  H2         8.1750    7.8760   29.2410 H       1  LIG1        0.1461
     32  H3         3.0850    1.3570   25.0340 H       1  LIG1        0.2883
     33  H4         2.9450    0.6360   22.8680 H       1  LIG1        0.3009
     34  H5         3.0600    1.7560   21.5870 H       1  LIG1        0.3009
     35 H           6.9936    3.7313   26.3728 H       1  LIG1        0.0830
     36 H           7.6857    6.0505   26.7142 H       1  LIG1        0.0651
     37 H           8.9373    5.0966   30.6522 H       1  LIG1        0.0651
     38 H           8.2478    2.7863   30.3038 H       1  LIG1        0.0830
     39 H           8.7629    7.6431   25.0763 H       1  LIG1        0.0462
     40 H           8.0055    8.3250   27.5200 H       1  LIG1        0.0277
     41 H           8.7648    9.8196   27.0825 H       1  LIG1        0.0277
     42 H          10.8464    8.8704   26.9864 H       1  LIG1        0.0281
     43 H          10.2360    7.3924   26.2782 H       1  LIG1        0.0281
     44 H          10.6799    6.5178   28.3257 H       1  LIG1        0.0461
     45 H          10.6539    8.0716   29.1091 H       1  LIG1        0.0461
     46 H           3.3050    3.0155   25.3655 H       1  LIG1        0.2883
     47 H           2.9110    8.0803   25.0530 H       1  LIG1        0.0624
     48 H           3.9182    9.7113   26.5831 H       1  LIG1        0.0618
     49 H           6.3543    9.9124   26.7271 H       1  LIG1        0.0621
     50 H           6.7984    6.8362   23.8121 H       1  LIG1        0.0627
     51 H           2.8237    5.9690   20.2013 H       1  LIG1        0.0618
     52 H           3.8378    7.6399   21.6904 H       1  LIG1        0.0624
     53 H           4.2473    4.6781   24.7135 H       1  LIG1        0.0632
     54 H           2.5232    3.6532   20.9742 H       1  LIG1        0.0626
@<TRIPOS>BOND
     1     1     2    2
     2     1     3    1
     3     1    11    1
     4     3    30    1
     5     4     5   ar
     6     4     9   ar
     7     5     6   ar
     8     6     7   ar
     9     7     8   ar
    10     7    10    1
    11     8     9   ar
    12    10    14    1
    13    10    31    1
    14    11    12    1
    15    11    21    1
    16    12    13    1
    17    13    14    1
    18    15    17    1
    19    15    32    1
    20    16    17    2
    21    16    33    1
    22    16    34    1
    23    17    28    1
    24    18    19   ar
    25    18    23   ar
    26    19    20   ar
    27    20    21   ar
    28    21    22   ar
    29    22    23   ar
    30    23    26    1
    31    24    25   ar
    32    24    29   ar
    33    25    26   ar
    34    26    27   ar
    35    27    28   ar
    36    28    29   ar
    37     5    35    1
    38     6    36    1
    39     8    37    1
    40     9    38    1
    41    11    39    1
    42    12    40    1
    43    12    41    1
    44    13    42    1
    45    13    43    1
    46    14    44    1
    47    14    45    1
    48    15    46    1
    49    18    47    1
    50    19    48    1
    51    20    49    1
    52    22    50    1
    53    24    51    1
    54    25    52    1
    55    27    53    1
    56    29    54    1
