@<TRIPOS>MOLECULE
pose3.pdb
 54 56 0 0 0
SMALL
GASTEIGER

@<TRIPOS>ATOM
      1  C1         5.3250    7.5380   20.6720 C.2     1  LIG1        0.3122
      2  O1         5.1080    7.1000   19.5340 O.2     1  LIG1       -0.2503
      3  O2         4.7470    8.7080   21.0830 O.3     1  LIG1       -0.4802
      4  N1        11.1210    6.8940   28.1170 N.ar    1  LIG1       -0.2631
      5  C2        11.2710    8.2050   27.6230 C.ar    1  LIG1        0.0293
      6  C3        10.3020    8.7350   26.7460 C.ar    1  LIG1       -0.0227
      7  C4         9.1900    7.9570   26.3630 C.ar    1  LIG1        0.0300
      8  C5         9.0420    6.6340   26.8660 C.ar    1  LIG1       -0.0227
      9  C6        10.0070    6.1110   27.7390 C.ar    1  LIG1        0.0293
     10  N2         8.1960    8.5580   25.4350 N.pl3   1  LIG1       -0.3438
     11  C7         6.2450    6.7400   21.6190 C.3     1  LIG1        0.0813
     12  C8         5.9910    7.1200   23.0790 C.3     1  LIG1       -0.0346
     13  C9         6.8770    8.3210   23.3980 C.3     1  LIG1       -0.0364
     14  C10        8.1270    7.8550   24.1360 C.3     1  LIG1        0.0091
     15  N3         8.6070   -0.3540   15.5040 N.pl3   1  LIG1       -0.2497
     16  N4         6.4640    0.1690   16.1030 N.2     1  LIG1       -0.2884
     17  C11        7.7560    0.1750   16.3630 C.2     1  LIG1        0.2662
     18  C12        5.5830    2.4470   21.0120 C.ar    1  LIG1       -0.0540
     19  C13        4.6460    3.2240   21.7470 C.ar    1  LIG1       -0.0609
     20  C14        4.8720    4.6130   21.9340 C.ar    1  LIG1       -0.0577
     21  C15        6.0350    5.2340   21.3920 C.ar    1  LIG1       -0.0331
     22  C16        6.9840    4.4550   20.6520 C.ar    1  LIG1       -0.0501
     23  C17        6.7590    3.0580   20.4600 C.ar    1  LIG1       -0.0176
     24  C18       10.0280    1.2320   19.3390 C.ar    1  LIG1       -0.0604
     25  C19        9.1210    2.0200   20.1070 C.ar    1  LIG1       -0.0540
     26  C20        7.7760    2.2040   19.6530 C.ar    1  LIG1       -0.0171
     27  C21        7.3590    1.5990   18.4380 C.ar    1  LIG1       -0.0393
     28  C22        8.2560    0.8140   17.6730 C.ar    1  LIG1        0.0614
     29  C23        9.5950    0.6290   18.1200 C.ar    1  LIG1       -0.0470
     30  H1         5.2660    9.4840   21.1630 H       1  LIG1        0.2951
     31  H2         7.6430    9.3410   25.6610 H       1  LIG1        0.1461
     32  H3         8.2760   -0.7590   14.6700 H       1  LIG1        0.2883
     33  H4         6.1320   -0.2360   15.2700 H       1  LIG1        0.3009
     34  H5         5.8320    0.5690   16.7430 H       1  LIG1        0.3009
     35 H          12.0855    8.7743   27.9014 H       1  LIG1        0.0830
     36 H          10.4071    9.6954   26.3833 H       1  LIG1        0.0651
     37 H           8.2285    6.0622   26.5897 H       1  LIG1        0.0651
     38 H           9.9033    5.1521   28.1062 H       1  LIG1        0.0830
     39 H           7.2640    6.9825   21.4004 H       1  LIG1        0.0462
     40 H           6.2416    6.3002   23.7193 H       1  LIG1        0.0277
     41 H           4.9596    7.3594   23.2335 H       1  LIG1        0.0277
     42 H           6.3359    9.0087   24.0138 H       1  LIG1        0.0281
     43 H           7.1624    8.8032   22.4864 H       1  LIG1        0.0281
     44 H           8.0765    6.7988   24.2997 H       1  LIG1        0.0461
     45 H           8.9982    8.0738   23.5546 H       1  LIG1        0.0461
     46 H           9.5723   -0.3436   15.6972 H       1  LIG1        0.2883
     47 H           5.4167    1.4378   20.8745 H       1  LIG1        0.0624
     48 H           3.8035    2.7792   22.1436 H       1  LIG1        0.0618
     49 H           4.1902    5.1766   22.4656 H       1  LIG1        0.0621
     50 H           7.8270    4.9024   20.2593 H       1  LIG1        0.0627
     51 H          10.9980    1.0977   19.6648 H       1  LIG1        0.0618
     52 H           9.4336    2.4567   20.9882 H       1  LIG1        0.0624
     53 H           6.3903    1.7329   18.1082 H       1  LIG1        0.0632
     54 H          10.2516    0.0597   17.5634 H       1  LIG1        0.0626
@<TRIPOS>BOND
     1     1     2    2
     2     1     3    1
     3     1    11    1
     4     3    30    1
     5     4     5   ar
     6     4     9   ar
     7     5     6   ar
     8     6     7   ar
     9     7     8   ar
    10     7    10    1
    11     8     9   ar
    12    10    14    1
    13    10    31    1
    14    11    12    1
    15    11    21    1
    16    12    13    1
    17    13    14    1
    18    15    17    1
    19    15    32    1
    20    16    17    2
    21    16    33    1
    22    16    34    1
    23    17    28    1
    24    18    19   ar
    25    18    23   ar
    26    19    20   ar
    27    20    21   ar
    28    21    22   ar
    29    22    23   ar
    30    23    26    1
    31    24    25   ar
    32    24    29   ar
    33    25    26   ar
    34    26    27   ar
    35    27    28   ar
    36    28    29   ar
    37     5    35    1
    38     6    36    1
    39     8    37    1
    40     9    38    1
    41    11    39    1
    42    12    40    1
    43    12    41    1
    44    13    42    1
    45    13    43    1
    46    14    44    1
    47    14    45    1
    48    15    46    1
    49    18    47    1
    50    19    48    1
    51    20    49    1
    52    22    50    1
    53    24    51    1
    54    25    52    1
    55    27    53    1
    56    29    54    1
