@<TRIPOS>MOLECULE
pose5.pdb
 54 56 0 0 0
SMALL
GASTEIGER

@<TRIPOS>ATOM
      1  C1         7.2720    5.3580   21.4290 C.2     1  LIG1        0.3122
      2  O1         7.9780    4.4830   21.9510 O.2     1  LIG1       -0.2503
      3  O2         7.2590    5.5120   20.0690 O.3     1  LIG1       -0.4802
      4  N1        -1.0170    5.4750   22.3970 N.ar    1  LIG1       -0.2631
      5  C2        -0.3960    5.5960   23.6550 C.ar    1  LIG1        0.0293
      6  C3         0.8050    4.9020   23.9100 C.ar    1  LIG1       -0.0227
      7  C4         1.3810    4.0880   22.9130 C.ar    1  LIG1        0.0300
      8  C5         0.7500    3.9700   21.6420 C.ar    1  LIG1       -0.0227
      9  C6        -0.4430    4.6630   21.3920 C.ar    1  LIG1        0.0293
     10  N2         2.6460    3.3730   23.2290 N.pl3   1  LIG1       -0.3438
     11  C7         6.4050    6.2580   22.3320 C.3     1  LIG1        0.0813
     12  C8         5.7230    5.4380   23.4300 C.3     1  LIG1       -0.0346
     13  C9         4.3010    5.1440   22.9630 C.3     1  LIG1       -0.0364
     14  C10        3.6140    4.2190   23.9610 C.3     1  LIG1        0.0091
     15  N3        14.4280    8.2950   24.4640 N.pl3   1  LIG1       -0.2497
     16  N4        14.9210    6.7220   26.0470 N.2     1  LIG1       -0.2884
     17  C11       14.0510    7.5260   25.4680 C.2     1  LIG1        0.2662
     18  C12        8.8480    9.4960   24.0000 C.ar    1  LIG1       -0.0540
     19  C13        7.8300    9.7770   23.0480 C.ar    1  LIG1       -0.0609
     20  C14        7.0460    8.7200   22.5170 C.ar    1  LIG1       -0.0577
     21  C15        7.2740    7.3750   22.9310 C.ar    1  LIG1       -0.0331
     22  C16        8.2990    7.0850   23.8890 C.ar    1  LIG1       -0.0501
     23  C17        9.0900    8.1460   24.4270 C.ar    1  LIG1       -0.0176
     24  C18       10.9270    7.3300   27.7780 C.ar    1  LIG1       -0.0604
     25  C19        9.8830    7.5990   26.8460 C.ar    1  LIG1       -0.0540
     26  C20       10.2000    7.8450   25.4720 C.ar    1  LIG1       -0.0171
     27  C21       11.5550    7.8180   25.0510 C.ar    1  LIG1       -0.0393
     28  C22       12.5960    7.5480   25.9730 C.ar    1  LIG1        0.0614
     29  C23       12.2860    7.3040   27.3410 C.ar    1  LIG1       -0.0470
     30  H1         6.4820    5.8090   19.6390 H       1  LIG1        0.2951
     31  H2         2.8200    2.4380   22.9780 H       1  LIG1        0.1461
     32  H3        15.3610    8.2730   24.1500 H       1  LIG1        0.2883
     33  H4        15.8540    6.6980   25.7340 H       1  LIG1        0.3009
     34  H5        14.6370    6.1450   26.7920 H       1  LIG1        0.3009
     35 H          -0.8175    6.1894   24.3866 H       1  LIG1        0.0830
     36 H           1.2641    4.9903   24.8300 H       1  LIG1        0.0651
     37 H           1.1688    3.3772   20.9083 H       1  LIG1        0.0651
     38 H          -0.9033    4.5801   20.4720 H       1  LIG1        0.0830
     39 H           5.6318    6.7029   21.7411 H       1  LIG1        0.0462
     40 H           5.7002    5.9962   24.3426 H       1  LIG1        0.0277
     41 H           6.2574    4.5285   23.6094 H       1  LIG1        0.0277
     42 H           4.3322    4.6718   22.0034 H       1  LIG1        0.0281
     43 H           3.7536    6.0608   22.8944 H       1  LIG1        0.0281
     44 H           4.3434    3.6003   24.4406 H       1  LIG1        0.0461
     45 H           3.1064    4.7959   24.7056 H       1  LIG1        0.0461
     46 H          13.7762    8.8909   24.0288 H       1  LIG1        0.2883
     47 H           9.4161   10.2661   24.3863 H       1  LIG1        0.0624
     48 H           7.6614   10.7485   22.7435 H       1  LIG1        0.0618
     49 H           6.3066    8.9261   21.8272 H       1  LIG1        0.0621
     50 H           8.4655    6.1119   24.1897 H       1  LIG1        0.0627
     51 H          10.7006    7.1539   28.7693 H       1  LIG1        0.0618
     52 H           8.9004    7.6164   27.1611 H       1  LIG1        0.0624
     53 H          11.7848    7.9973   24.0610 H       1  LIG1        0.0632
     54 H          13.0422    7.1087   28.0155 H       1  LIG1        0.0626
@<TRIPOS>BOND
     1     1     2    2
     2     1     3    1
     3     1    11    1
     4     3    30    1
     5     4     5   ar
     6     4     9   ar
     7     5     6   ar
     8     6     7   ar
     9     7     8   ar
    10     7    10    1
    11     8     9   ar
    12    10    14    1
    13    10    31    1
    14    11    12    1
    15    11    21    1
    16    12    13    1
    17    13    14    1
    18    15    17    1
    19    15    32    1
    20    16    17    2
    21    16    33    1
    22    16    34    1
    23    17    28    1
    24    18    19   ar
    25    18    23   ar
    26    19    20   ar
    27    20    21   ar
    28    21    22   ar
    29    22    23   ar
    30    23    26    1
    31    24    25   ar
    32    24    29   ar
    33    25    26   ar
    34    26    27   ar
    35    27    28   ar
    36    28    29   ar
    37     5    35    1
    38     6    36    1
    39     8    37    1
    40     9    38    1
    41    11    39    1
    42    12    40    1
    43    12    41    1
    44    13    42    1
    45    13    43    1
    46    14    44    1
    47    14    45    1
    48    15    46    1
    49    18    47    1
    50    19    48    1
    51    20    49    1
    52    22    50    1
    53    24    51    1
    54    25    52    1
    55    27    53    1
    56    29    54    1
