@<TRIPOS>MOLECULE
pose4.pdb
 54 56 0 0 0
SMALL
GASTEIGER

@<TRIPOS>ATOM
      1  C1         4.4940    4.3290   23.1580 C.2     1  LIG1        0.3122
      2  O1         3.6480    3.4250   23.1110 O.2     1  LIG1       -0.2503
      3  O2         4.1270    5.5970   23.5200 O.3     1  LIG1       -0.4802
      4  N1         9.2480   -0.0740   16.6520 N.ar    1  LIG1       -0.2631
      5  C2         9.9070    0.4320   17.7900 C.ar    1  LIG1        0.0293
      6  C3         9.2770    1.4160   18.5810 C.ar    1  LIG1       -0.0227
      7  C4         7.9960    1.8920   18.2350 C.ar    1  LIG1        0.0300
      8  C5         7.3330    1.3760   17.0850 C.ar    1  LIG1       -0.0227
      9  C6         7.9630    0.3980   16.3020 C.ar    1  LIG1        0.0293
     10  N2         7.3720    2.9300   19.0980 N.pl3   1  LIG1       -0.3438
     11  C7         5.9610    4.0020   22.8140 C.3     1  LIG1        0.0813
     12  C8         6.0460    3.0700   21.6030 C.3     1  LIG1       -0.0346
     13  C9         7.4870    2.5770   21.5070 C.3     1  LIG1       -0.0364
     14  C10        8.1710    3.2240   20.3080 C.3     1  LIG1        0.0091
     15  N3        10.2860    7.9030   29.2330 N.pl3   1  LIG1       -0.2497
     16  N4         8.3900    6.8290   28.5410 N.2     1  LIG1       -0.2884
     17  C11        9.4610    7.5460   28.2660 C.2     1  LIG1        0.2662
     18  C12        8.1420    7.7270   22.0350 C.ar    1  LIG1       -0.0540
     19  C13        7.3200    7.1480   21.0290 C.ar    1  LIG1       -0.0609
     20  C14        6.6190    5.9440   21.2950 C.ar    1  LIG1       -0.0577
     21  C15        6.7340    5.3070   22.5660 C.ar    1  LIG1       -0.0331
     22  C16        7.5620    5.8840   23.5830 C.ar    1  LIG1       -0.0501
     23  C17        8.2690    7.0980   23.3200 C.ar    1  LIG1       -0.0176
     24  C18       11.0060    9.2310   25.1180 C.ar    1  LIG1       -0.0604
     25  C19       10.2020    8.6650   24.0850 C.ar    1  LIG1       -0.0540
     26  C20        9.1630    7.7380   24.4170 C.ar    1  LIG1       -0.0171
     27  C21        8.9440    7.3900   25.7760 C.ar    1  LIG1       -0.0393
     28  C22        9.7390    7.9520   26.8060 C.ar    1  LIG1        0.0614
     29  C23       10.7730    8.8730   26.4800 C.ar    1  LIG1       -0.0470
     30  H1         4.3080    6.3180   22.9490 H       1  LIG1        0.2951
     31  H2         6.5200    3.3750   18.8860 H       1  LIG1        0.1461
     32  H3        10.0980    7.6380   30.1620 H       1  LIG1        0.2883
     33  H4         8.2020    6.5630   29.4700 H       1  LIG1        0.3009
     34  H5         7.7790    6.5590   27.8180 H       1  LIG1        0.3009
     35 H          10.8452    0.0848   18.0435 H       1  LIG1        0.0830
     36 H           9.7557    1.7886   19.4159 H       1  LIG1        0.0651
     37 H           6.3942    1.7199   16.8293 H       1  LIG1        0.0651
     38 H           7.4866    0.0218   15.4674 H       1  LIG1        0.0830
     39 H           6.4064    3.4894   23.6409 H       1  LIG1        0.0462
     40 H           5.7813    3.6017   20.7130 H       1  LIG1        0.0277
     41 H           5.3714    2.2466   21.7118 H       1  LIG1        0.0277
     42 H           7.4922    1.5136   21.3887 H       1  LIG1        0.0281
     43 H           8.0128    2.8410   22.4007 H       1  LIG1        0.0281
     44 H           8.2298    4.2824   20.4535 H       1  LIG1        0.0461
     45 H           9.1618    2.8356   20.1969 H       1  LIG1        0.0461
     46 H          11.0886    8.4339   29.0249 H       1  LIG1        0.2883
     47 H           8.6500    8.6040   21.8406 H       1  LIG1        0.0624
     48 H           7.2337    7.6033   20.1069 H       1  LIG1        0.0618
     49 H           6.0219    5.5262   20.5643 H       1  LIG1        0.0621
     50 H           7.6477    5.4243   24.5030 H       1  LIG1        0.0627
     51 H          11.7559    9.8991   24.8809 H       1  LIG1        0.0618
     52 H          10.3690    8.9233   23.0999 H       1  LIG1        0.0624
     53 H           8.1970    6.7198   26.0167 H       1  LIG1        0.0632
     54 H          11.3545    9.2822   27.2280 H       1  LIG1        0.0626
@<TRIPOS>BOND
     1     1     2    2
     2     1     3    1
     3     1    11    1
     4     3    30    1
     5     4     5   ar
     6     4     9   ar
     7     5     6   ar
     8     6     7   ar
     9     7     8   ar
    10     7    10    1
    11     8     9   ar
    12    10    14    1
    13    10    31    1
    14    11    12    1
    15    11    21    1
    16    12    13    1
    17    13    14    1
    18    15    17    1
    19    15    32    1
    20    16    17    2
    21    16    33    1
    22    16    34    1
    23    17    28    1
    24    18    19   ar
    25    18    23   ar
    26    19    20   ar
    27    20    21   ar
    28    21    22   ar
    29    22    23   ar
    30    23    26    1
    31    24    25   ar
    32    24    29   ar
    33    25    26   ar
    34    26    27   ar
    35    27    28   ar
    36    28    29   ar
    37     5    35    1
    38     6    36    1
    39     8    37    1
    40     9    38    1
    41    11    39    1
    42    12    40    1
    43    12    41    1
    44    13    42    1
    45    13    43    1
    46    14    44    1
    47    14    45    1
    48    15    46    1
    49    18    47    1
    50    19    48    1
    51    20    49    1
    52    22    50    1
    53    24    51    1
    54    25    52    1
    55    27    53    1
    56    29    54    1
