@<TRIPOS>MOLECULE
pose1.pdb
 54 56 0 0 0
SMALL
GASTEIGER

@<TRIPOS>ATOM
      1  C1         9.0700    9.1140   20.4510 C.2     1  LIG1        0.3122
      2  O1         9.8650    8.5910   19.6580 O.2     1  LIG1       -0.2503
      3  O2         9.2730   10.3960   20.8840 O.3     1  LIG1       -0.4802
      4  N1         2.3900    3.2560   19.7920 N.ar    1  LIG1       -0.2631
      5  C2         3.3820    4.1110   19.2730 C.ar    1  LIG1        0.0293
      6  C3         4.5890    4.2890   19.9810 C.ar    1  LIG1       -0.0227
      7  C4         4.8020    3.6170   21.2020 C.ar    1  LIG1        0.0300
      8  C5         3.7980    2.7530   21.7210 C.ar    1  LIG1       -0.0227
      9  C6         2.5990    2.5780   21.0140 C.ar    1  LIG1        0.0293
     10  N2         6.0900    3.8380   21.9130 N.pl3   1  LIG1       -0.3438
     11  C7         7.8480    8.3050   20.9300 C.3     1  LIG1        0.0813
     12  C8         7.9960    6.8240   20.5730 C.3     1  LIG1       -0.0346
     13  C9         6.9830    6.0500   21.4110 C.3     1  LIG1       -0.0364
     14  C10        7.0810    4.5630   21.0890 C.3     1  LIG1        0.0091
     15  N3        14.1220    6.1120   26.5380 N.pl3   1  LIG1       -0.2497
     16  N4        13.4880    6.8940   24.4860 N.2     1  LIG1       -0.2884
     17  C11       13.1980    6.6140   25.7410 C.2     1  LIG1        0.2662
     18  C12        7.2680    8.8880   25.2380 C.ar    1  LIG1       -0.0540
     19  C13        6.3130    9.3820   24.3080 C.ar    1  LIG1       -0.0609
     20  C14        6.5120    9.1860   22.9170 C.ar    1  LIG1       -0.0577
     21  C15        7.6670    8.4960   22.4440 C.ar    1  LIG1       -0.0331
     22  C16        8.6340    7.9980   23.3760 C.ar    1  LIG1       -0.0501
     23  C17        8.4370    8.1920   24.7780 C.ar    1  LIG1       -0.0176
     24  C18       10.1020    6.9200   28.0760 C.ar    1  LIG1       -0.0604
     25  C19        9.1230    7.4150   27.1660 C.ar    1  LIG1       -0.0540
     26  C20        9.4750    7.6490   25.7990 C.ar    1  LIG1       -0.0171
     27  C21       10.7990    7.3840   25.3620 C.ar    1  LIG1       -0.0393
     28  C22       11.7740    6.8890   26.2620 C.ar    1  LIG1        0.0614
     29  C23       11.4290    6.6560   27.6230 C.ar    1  LIG1       -0.0470
     30  H1         9.9070   10.9400   20.4590 H       1  LIG1        0.2951
     31  H2         6.2630    3.5340   22.8330 H       1  LIG1        0.1461
     32  H3        15.0290    5.9400   26.1940 H       1  LIG1        0.2883
     33  H4        14.3940    6.7230   24.1410 H       1  LIG1        0.3009
     34  H5        12.7990    7.2730   23.8940 H       1  LIG1        0.3009
     35 H           3.2266    4.6043   18.3800 H       1  LIG1        0.0830
     36 H           5.3189    4.9135   19.6038 H       1  LIG1        0.0651
     37 H           3.9509    2.2574   22.6132 H       1  LIG1        0.0651
     38 H           1.8679    1.9526   21.3873 H       1  LIG1        0.0830
     39 H           6.9737    8.6661   20.4299 H       1  LIG1        0.0462
     40 H           8.9876    6.4908   20.7979 H       1  LIG1        0.0277
     41 H           7.8214    6.6675   19.5290 H       1  LIG1        0.0277
     42 H           5.9962    6.3982   21.1877 H       1  LIG1        0.0281
     43 H           7.1908    6.2027   22.4494 H       1  LIG1        0.0281
     44 H           6.8732    4.4039   20.0515 H       1  LIG1        0.0461
     45 H           8.0668    4.2059   21.3026 H       1  LIG1        0.0461
     46 H          13.9050    5.9093   27.4766 H       1  LIG1        0.2883
     47 H           7.1204    9.0303   26.2494 H       1  LIG1        0.0624
     48 H           5.4757    9.8828   24.6444 H       1  LIG1        0.0618
     49 H           5.8170    9.5448   22.2437 H       1  LIG1        0.0621
     50 H           9.4714    7.5000   23.0356 H       1  LIG1        0.0627
     51 H           9.8510    6.7525   29.0629 H       1  LIG1        0.0618
     52 H           8.1624    7.6042   27.4923 H       1  LIG1        0.0624
     53 H          11.0543    7.5540   24.3766 H       1  LIG1        0.0632
     54 H          12.1378    6.2966   28.2814 H       1  LIG1        0.0626
@<TRIPOS>BOND
     1     1     2    2
     2     1     3    1
     3     1    11    1
     4     3    30    1
     5     4     5   ar
     6     4     9   ar
     7     5     6   ar
     8     6     7   ar
     9     7     8   ar
    10     7    10    1
    11     8     9   ar
    12    10    14    1
    13    10    31    1
    14    11    12    1
    15    11    21    1
    16    12    13    1
    17    13    14    1
    18    15    17    1
    19    15    32    1
    20    16    17    2
    21    16    33    1
    22    16    34    1
    23    17    28    1
    24    18    19   ar
    25    18    23   ar
    26    19    20   ar
    27    20    21   ar
    28    21    22   ar
    29    22    23   ar
    30    23    26    1
    31    24    25   ar
    32    24    29   ar
    33    25    26   ar
    34    26    27   ar
    35    27    28   ar
    36    28    29   ar
    37     5    35    1
    38     6    36    1
    39     8    37    1
    40     9    38    1
    41    11    39    1
    42    12    40    1
    43    12    41    1
    44    13    42    1
    45    13    43    1
    46    14    44    1
    47    14    45    1
    48    15    46    1
    49    18    47    1
    50    19    48    1
    51    20    49    1
    52    22    50    1
    53    24    51    1
    54    25    52    1
    55    27    53    1
    56    29    54    1
