@<TRIPOS>MOLECULE
pose7.pdb
 54 56 0 0 0
SMALL
GASTEIGER

@<TRIPOS>ATOM
      1  C1         7.3800    0.5740   21.2170 C.2     1  LIG1        0.3122
      2  O1         6.2620    0.1460   20.8980 O.2     1  LIG1       -0.2503
      3  O2         8.2140   -0.1870   21.9900 O.3     1  LIG1       -0.4802
      4  N1         8.1560   -4.1800   15.5890 N.ar    1  LIG1       -0.2631
      5  C2         8.8620   -3.7780   16.7390 C.ar    1  LIG1        0.0293
      6  C3         9.0530   -2.4040   16.9960 C.ar    1  LIG1       -0.0227
      7  C4         8.5420   -1.4380   16.1050 C.ar    1  LIG1        0.0300
      8  C5         7.8280   -1.8490   14.9450 C.ar    1  LIG1       -0.0227
      9  C6         7.6400   -3.2160   14.6940 C.ar    1  LIG1        0.0293
     10  N2         8.7700   -0.0020   16.4160 N.pl3   1  LIG1       -0.3438
     11  C7         7.8170    1.9680   20.7230 C.3     1  LIG1        0.0813
     12  C8         7.4870    2.1520   19.2390 C.3     1  LIG1       -0.0346
     13  C9         8.4910    1.3250   18.4420 C.3     1  LIG1       -0.0364
     14  C10        7.7640    0.5480   17.3510 C.3     1  LIG1        0.0091
     15  N3        10.1120    9.0520   20.9440 N.pl3   1  LIG1       -0.2497
     16  N4         8.9680   10.9900   20.5460 N.2     1  LIG1       -0.2884
     17  C11        8.9690    9.6980   20.8050 C.2     1  LIG1        0.2662
     18  C12        5.8800    5.0100   23.2190 C.ar    1  LIG1       -0.0540
     19  C13        5.9290    3.6540   23.6430 C.ar    1  LIG1       -0.0609
     20  C14        6.5600    2.6800   22.8260 C.ar    1  LIG1       -0.0577
     21  C15        7.1450    3.0520   21.5800 C.ar    1  LIG1       -0.0331
     22  C16        7.0980    4.4180   21.1470 C.ar    1  LIG1       -0.0501
     23  C17        6.4650    5.4010   21.9670 C.ar    1  LIG1       -0.0176
     24  C18        5.1610    8.9030   20.8210 C.ar    1  LIG1       -0.0604
     25  C19        5.1700    7.5400   21.2390 C.ar    1  LIG1       -0.0540
     26  C20        6.4140    6.8860   21.5120 C.ar    1  LIG1       -0.0171
     27  C21        7.6290    7.6040   21.3630 C.ar    1  LIG1       -0.0393
     28  C22        7.6250    8.9590   20.9500 C.ar    1  LIG1        0.0614
     29  C23        6.3910    9.6130   20.6770 C.ar    1  LIG1       -0.0470
     30  H1         8.0110   -1.0870   22.1530 H       1  LIG1        0.2951
     31  H2         9.5110    0.5260   16.0410 H       1  LIG1        0.1461
     32  H3        10.9650    9.5340   20.8490 H       1  LIG1        0.2883
     33  H4         9.8210   11.4740   20.4510 H       1  LIG1        0.3009
     34  H5         8.1160   11.4720   20.4480 H       1  LIG1        0.3009
     35 H           9.2378   -4.4847   17.3905 H       1  LIG1        0.0830
     36 H           9.5683   -2.1050   17.8387 H       1  LIG1        0.0651
     37 H           7.4504   -1.1449   14.2917 H       1  LIG1        0.0651
     38 H           7.1234   -3.5186   13.8534 H       1  LIG1        0.0830
     39 H           8.8783    2.0568   20.8262 H       1  LIG1        0.0462
     40 H           7.5696    3.1847   18.9714 H       1  LIG1        0.0277
     41 H           6.4867    1.8334   19.0323 H       1  LIG1        0.0277
     42 H           8.9868    0.6394   19.0970 H       1  LIG1        0.0281
     43 H           9.2109    1.9771   17.9933 H       1  LIG1        0.0281
     44 H           7.2038   -0.2513   17.7895 H       1  LIG1        0.0461
     45 H           7.0914    1.1945   16.8269 H       1  LIG1        0.0461
     46 H          10.1112    8.0878   21.1428 H       1  LIG1        0.2883
     47 H           5.4215    5.7174   23.8142 H       1  LIG1        0.0624
     48 H           5.5065    3.3783   24.5433 H       1  LIG1        0.0618
     49 H           6.5956    1.6962   23.1357 H       1  LIG1        0.0621
     50 H           7.5203    4.6900   20.2455 H       1  LIG1        0.0627
     51 H           4.2656    9.3762   20.6226 H       1  LIG1        0.0618
     52 H           4.2815    7.0258   21.3446 H       1  LIG1        0.0624
     53 H           8.5264    7.1332   21.5579 H       1  LIG1        0.0632
     54 H           6.3853   10.5998   20.3751 H       1  LIG1        0.0626
@<TRIPOS>BOND
     1     1     2    2
     2     1     3    1
     3     1    11    1
     4     3    30    1
     5     4     5   ar
     6     4     9   ar
     7     5     6   ar
     8     6     7   ar
     9     7     8   ar
    10     7    10    1
    11     8     9   ar
    12    10    14    1
    13    10    31    1
    14    11    12    1
    15    11    21    1
    16    12    13    1
    17    13    14    1
    18    15    17    1
    19    15    32    1
    20    16    17    2
    21    16    33    1
    22    16    34    1
    23    17    28    1
    24    18    19   ar
    25    18    23   ar
    26    19    20   ar
    27    20    21   ar
    28    21    22   ar
    29    22    23   ar
    30    23    26    1
    31    24    25   ar
    32    24    29   ar
    33    25    26   ar
    34    26    27   ar
    35    27    28   ar
    36    28    29   ar
    37     5    35    1
    38     6    36    1
    39     8    37    1
    40     9    38    1
    41    11    39    1
    42    12    40    1
    43    12    41    1
    44    13    42    1
    45    13    43    1
    46    14    44    1
    47    14    45    1
    48    15    46    1
    49    18    47    1
    50    19    48    1
    51    20    49    1
    52    22    50    1
    53    24    51    1
    54    25    52    1
    55    27    53    1
    56    29    54    1
