@<TRIPOS>MOLECULE
pose0.pdb
 54 56 0 0 0
SMALL
GASTEIGER

@<TRIPOS>ATOM
      1  C1         2.9440    2.1840   22.7330 C.2     1  LIG1        0.3122
      2  O1         2.1100    2.6180   21.9250 O.2     1  LIG1       -0.2503
      3  O2         2.5330    1.5890   23.8940 O.3     1  LIG1       -0.4802
      4  N1        10.4530   -1.3630   17.3420 N.ar    1  LIG1       -0.2631
      5  C2        10.9800   -0.0840   17.6100 C.ar    1  LIG1        0.0293
      6  C3        10.2940    0.7830   18.4860 C.ar    1  LIG1       -0.0227
      7  C4         9.0880    0.3740   19.0910 C.ar    1  LIG1        0.0300
      8  C5         8.5610   -0.9200   18.8190 C.ar    1  LIG1       -0.0227
      9  C6         9.2460   -1.7800   17.9470 C.ar    1  LIG1        0.0293
     10  N2         8.4000    1.3230   20.0060 N.pl3   1  LIG1       -0.3438
     11  C7         4.4440    2.3140   22.4030 C.3     1  LIG1        0.0813
     12  C8         4.8240    1.4280   21.2130 C.3     1  LIG1       -0.0346
     13  C9         6.3290    1.1900   21.2850 C.3     1  LIG1       -0.0364
     14  C10        6.9270    1.2700   19.8850 C.3     1  LIG1        0.0091
     15  N3         9.8150    8.5330   25.2540 N.pl3   1  LIG1       -0.2497
     16  N4         9.1550    7.7220   27.2870 N.2     1  LIG1       -0.2884
     17  C11        8.8610    8.1040   26.0600 C.2     1  LIG1        0.2662
     18  C12        5.4100    6.5060   21.5480 C.ar    1  LIG1       -0.0540
     19  C13        5.1080    5.6050   20.4900 C.ar    1  LIG1       -0.0609
     20  C14        4.7960    4.2520   20.7810 C.ar    1  LIG1       -0.0577
     21  C15        4.7850    3.7880   22.1290 C.ar    1  LIG1       -0.0331
     22  C16        5.0900    4.6910   23.1990 C.ar    1  LIG1       -0.0501
     23  C17        5.4030    6.0540   22.9110 C.ar    1  LIG1       -0.0176
     24  C18        5.0430    8.7600   25.7080 C.ar    1  LIG1       -0.0604
     25  C19        4.7090    7.8600   24.6540 C.ar    1  LIG1       -0.0540
     26  C20        5.7270    7.0450   24.0630 C.ar    1  LIG1       -0.0171
     27  C21        7.0630    7.1430   24.5340 C.ar    1  LIG1       -0.0393
     28  C22        7.3990    8.0350   25.5820 C.ar    1  LIG1        0.0614
     29  C23        6.3900    8.8470   26.1720 C.ar    1  LIG1       -0.0470
     30  H1         2.1050    2.0970   24.5550 H       1  LIG1        0.2951
     31  H2         8.8750    1.9220   20.6260 H       1  LIG1        0.1461
     32  H3        10.7460    8.5730   25.5710 H       1  LIG1        0.2883
     33  H4        10.0860    7.7610   27.6050 H       1  LIG1        0.3009
     34  H5         8.4440    7.3980   27.8850 H       1  LIG1        0.3009
     35 H          11.8627    0.2167   17.1680 H       1  LIG1        0.0830
     36 H          10.6765    1.7206   18.6849 H       1  LIG1        0.0651
     37 H           7.6794   -1.2242   19.2609 H       1  LIG1        0.0651
     38 H           8.8674   -2.7190   17.7471 H       1  LIG1        0.0830
     39 H           5.0148    1.9785   23.2436 H       1  LIG1        0.0462
     40 H           4.5748    1.9201   20.2961 H       1  LIG1        0.0277
     41 H           4.2923    0.5001   21.2473 H       1  LIG1        0.0277
     42 H           6.5169    0.2208   21.6976 H       1  LIG1        0.0281
     43 H           6.7775    1.9369   21.9062 H       1  LIG1        0.0281
     44 H           6.6421    0.4065   19.3210 H       1  LIG1        0.0461
     45 H           6.5688    2.1443   19.3828 H       1  LIG1        0.0461
     46 H           9.5951    8.8128   24.3361 H       1  LIG1        0.2883
     47 H           5.6355    7.4903   21.3350 H       1  LIG1        0.0624
     48 H           5.1158    5.9348   19.5122 H       1  LIG1        0.0618
     49 H           4.5757    3.5997   20.0122 H       1  LIG1        0.0621
     50 H           5.0834    4.3570   24.1754 H       1  LIG1        0.0627
     51 H           4.3109    9.3485   26.1354 H       1  LIG1        0.0618
     52 H           3.7354    7.7961   24.3177 H       1  LIG1        0.0624
     53 H           7.7981    6.5573   24.1077 H       1  LIG1        0.0632
     54 H           6.6322    9.4984   26.9349 H       1  LIG1        0.0626
@<TRIPOS>BOND
     1     1     2    2
     2     1     3    1
     3     1    11    1
     4     3    30    1
     5     4     5   ar
     6     4     9   ar
     7     5     6   ar
     8     6     7   ar
     9     7     8   ar
    10     7    10    1
    11     8     9   ar
    12    10    14    1
    13    10    31    1
    14    11    12    1
    15    11    21    1
    16    12    13    1
    17    13    14    1
    18    15    17    1
    19    15    32    1
    20    16    17    2
    21    16    33    1
    22    16    34    1
    23    17    28    1
    24    18    19   ar
    25    18    23   ar
    26    19    20   ar
    27    20    21   ar
    28    21    22   ar
    29    22    23   ar
    30    23    26    1
    31    24    25   ar
    32    24    29   ar
    33    25    26   ar
    34    26    27   ar
    35    27    28   ar
    36    28    29   ar
    37     5    35    1
    38     6    36    1
    39     8    37    1
    40     9    38    1
    41    11    39    1
    42    12    40    1
    43    12    41    1
    44    13    42    1
    45    13    43    1
    46    14    44    1
    47    14    45    1
    48    15    46    1
    49    18    47    1
    50    19    48    1
    51    20    49    1
    52    22    50    1
    53    24    51    1
    54    25    52    1
    55    27    53    1
    56    29    54    1
