@<TRIPOS>MOLECULE
pose9.pdb
 54 56 0 0 0
SMALL
GASTEIGER

@<TRIPOS>ATOM
      1  C1         5.2300    4.1030   22.9680 C.2     1  LIG1        0.3122
      2  O1         4.6120    3.0920   22.6080 O.2     1  LIG1       -0.2503
      3  O2         4.8000    4.8250   24.0490 O.3     1  LIG1       -0.4802
      4  N1         7.5530    2.0720   14.6500 N.ar    1  LIG1       -0.2631
      5  C2         6.4230    1.5170   15.2830 C.ar    1  LIG1        0.0293
      6  C3         6.4550    1.2610   16.6690 C.ar    1  LIG1       -0.0227
      7  C4         7.6120    1.5570   17.4190 C.ar    1  LIG1        0.0300
      8  C5         8.7500    2.1200   16.7760 C.ar    1  LIG1       -0.0227
      9  C6         8.7130    2.3740   15.3980 C.ar    1  LIG1        0.0293
     10  N2         7.6000    1.2680   18.8780 N.pl3   1  LIG1       -0.3438
     11  C7         6.4910    4.5280   22.1900 C.3     1  LIG1        0.0813
     12  C8         6.3360    4.2380   20.6940 C.3     1  LIG1       -0.0346
     13  C9         6.5240    2.7370   20.4990 C.3     1  LIG1       -0.0364
     14  C10        7.7990    2.4790   19.7040 C.3     1  LIG1        0.0091
     15  N3        10.0890    7.9390   29.6020 N.pl3   1  LIG1       -0.2497
     16  N4         8.4230    6.6290   28.7460 N.2     1  LIG1       -0.2884
     17  C11        9.3490    7.5530   28.5800 C.2     1  LIG1        0.2662
     18  C12        7.2540    8.7970   22.8480 C.ar    1  LIG1       -0.0540
     19  C13        6.3740    8.3720   21.8150 C.ar    1  LIG1       -0.0609
     20  C14        6.1350    6.9880   21.6130 C.ar    1  LIG1       -0.0577
     21  C15        6.7740    6.0180   22.4410 C.ar    1  LIG1       -0.0331
     22  C16        7.6630    6.4390   23.4820 C.ar    1  LIG1       -0.0501
     23  C17        7.9050    7.8320   23.6890 C.ar    1  LIG1       -0.0176
     24  C18       10.7530    9.6700   25.6340 C.ar    1  LIG1       -0.0604
     25  C19        9.8920    9.2640   24.5730 C.ar    1  LIG1       -0.0540
     26  C20        8.8610    8.3020   24.8200 C.ar    1  LIG1       -0.0171
     27  C21        8.7060    7.7620   26.1240 C.ar    1  LIG1       -0.0393
     28  C22        9.5580    8.1650   27.1820 C.ar    1  LIG1        0.0614
     29  C23       10.5850    9.1190   26.9400 C.ar    1  LIG1       -0.0470
     30  H1         5.3890    5.4070   24.4880 H       1  LIG1        0.2951
     31  H2         7.4730    0.3670   19.2540 H       1  LIG1        0.1461
     32  H3         9.9470    7.5400   30.4910 H       1  LIG1        0.2883
     33  H4         8.2800    6.2300   29.6340 H       1  LIG1        0.3009
     34  H5         7.8750    6.3380   27.9810 H       1  LIG1        0.3009
     35 H           5.5763    1.2990   14.7348 H       1  LIG1        0.0830
     36 H           5.6290    0.8556   17.1363 H       1  LIG1        0.0651
     37 H           9.5980    2.3401   17.3214 H       1  LIG1        0.0651
     38 H           9.5358    2.7830   14.9282 H       1  LIG1        0.0830
     39 H           7.3248    3.9561   22.5401 H       1  LIG1        0.0462
     40 H           7.0767    4.7746   20.1387 H       1  LIG1        0.0277
     41 H           5.3719    4.5464   20.3471 H       1  LIG1        0.0277
     42 H           5.6857    2.3396   19.9659 H       1  LIG1        0.0281
     43 H           6.5995    2.2617   21.4547 H       1  LIG1        0.0281
     44 H           8.0060    3.3171   19.0718 H       1  LIG1        0.0461
     45 H           8.6241    2.3369   20.3703 H       1  LIG1        0.0461
     46 H          10.7830    8.6258   29.4758 H       1  LIG1        0.2883
     47 H           7.4257    9.8041   22.9941 H       1  LIG1        0.0624
     48 H           5.9096    9.0696   21.2127 H       1  LIG1        0.0618
     49 H           5.4956    6.6816   20.8632 H       1  LIG1        0.0621
     50 H           8.1274    5.7384   24.0808 H       1  LIG1        0.0627
     51 H          11.4978   10.3623   25.4579 H       1  LIG1        0.0618
     52 H          10.0116    9.6627   23.6287 H       1  LIG1        0.0624
     53 H           7.9639    7.0677   26.3034 H       1  LIG1        0.0632
     54 H          11.2083    9.4126   27.7083 H       1  LIG1        0.0626
@<TRIPOS>BOND
     1     1     2    2
     2     1     3    1
     3     1    11    1
     4     3    30    1
     5     4     5   ar
     6     4     9   ar
     7     5     6   ar
     8     6     7   ar
     9     7     8   ar
    10     7    10    1
    11     8     9   ar
    12    10    14    1
    13    10    31    1
    14    11    12    1
    15    11    21    1
    16    12    13    1
    17    13    14    1
    18    15    17    1
    19    15    32    1
    20    16    17    2
    21    16    33    1
    22    16    34    1
    23    17    28    1
    24    18    19   ar
    25    18    23   ar
    26    19    20   ar
    27    20    21   ar
    28    21    22   ar
    29    22    23   ar
    30    23    26    1
    31    24    25   ar
    32    24    29   ar
    33    25    26   ar
    34    26    27   ar
    35    27    28   ar
    36    28    29   ar
    37     5    35    1
    38     6    36    1
    39     8    37    1
    40     9    38    1
    41    11    39    1
    42    12    40    1
    43    12    41    1
    44    13    42    1
    45    13    43    1
    46    14    44    1
    47    14    45    1
    48    15    46    1
    49    18    47    1
    50    19    48    1
    51    20    49    1
    52    22    50    1
    53    24    51    1
    54    25    52    1
    55    27    53    1
    56    29    54    1
