@<TRIPOS>MOLECULE
pose8.pdb
 54 56 0 0 0
SMALL
GASTEIGER

@<TRIPOS>ATOM
      1  C1         2.2850    1.6990   23.4590 C.2     1  LIG1        0.3122
      2  O1         2.9580    1.2940   24.4180 O.2     1  LIG1       -0.2503
      3  O2         1.1320    1.0540   23.1050 O.3     1  LIG1       -0.4802
      4  N1         7.8330    9.2570   23.9860 N.ar    1  LIG1       -0.2631
      5  C2         8.2490    8.0930   23.3110 C.ar    1  LIG1        0.0293
      6  C3         7.2840    7.1980   22.8050 C.ar    1  LIG1       -0.0227
      7  C4         5.9100    7.4640   22.9730 C.ar    1  LIG1        0.0300
      8  C5         5.4950    8.6430   23.6540 C.ar    1  LIG1       -0.0227
      9  C6         6.4570    9.5310   24.1550 C.ar    1  LIG1        0.0293
     10  N2         4.9300    6.4900   22.4240 N.pl3   1  LIG1       -0.3438
     11  C7         2.7620    2.9420   22.6820 C.3     1  LIG1        0.0813
     12  C8         2.5670    4.2150   23.5100 C.3     1  LIG1       -0.0346
     13  C9         2.7530    5.4020   22.5700 C.3     1  LIG1       -0.0364
     14  C10        3.6820    6.4250   23.2150 C.3     1  LIG1        0.0091
     15  N3        10.2380    1.3120   17.5260 N.pl3   1  LIG1       -0.2497
     16  N4        10.2630   -0.9660   17.3440 N.2     1  LIG1       -0.2884
     17  C11        9.6240    0.1480   17.6390 C.2     1  LIG1        0.2662
     18  C12        6.9830    2.4780   21.5820 C.ar    1  LIG1       -0.0540
     19  C13        6.6090    3.3140   22.6700 C.ar    1  LIG1       -0.0609
     20  C14        5.2400    3.4540   23.0160 C.ar    1  LIG1       -0.0577
     21  C15        4.2350    2.7630   22.2770 C.ar    1  LIG1       -0.0331
     22  C16        4.6050    1.9210   21.1790 C.ar    1  LIG1       -0.0501
     23  C17        5.9820    1.7760   20.8280 C.ar    1  LIG1       -0.0176
     24  C18        5.8750   -0.8470   17.9330 C.ar    1  LIG1       -0.0604
     25  C19        5.4580   -0.0180   19.0150 C.ar    1  LIG1       -0.0540
     26  C20        6.3980    0.8590   19.6440 C.ar    1  LIG1       -0.0171
     27  C21        7.7400    0.8940   19.1830 C.ar    1  LIG1       -0.0393
     28  C22        8.1580    0.0740   18.1060 C.ar    1  LIG1        0.0614
     29  C23        7.2280   -0.8010   17.4780 C.ar    1  LIG1       -0.0470
     30  H1         0.5170    1.4720   22.5340 H       1  LIG1        0.2951
     31  H2         5.0940    5.9470   21.6190 H       1  LIG1        0.1461
     32  H3        11.1750    1.3480   17.2260 H       1  LIG1        0.2883
     33  H4        11.2000   -0.9320   17.0440 H       1  LIG1        0.3009
     34  H5         9.8030   -1.8330   17.4240 H       1  LIG1        0.3009
     35 H           9.2545    7.8962   23.1874 H       1  LIG1        0.0830
     36 H           7.5851    6.3443   22.3094 H       1  LIG1        0.0651
     37 H           4.4903    8.8432   23.7784 H       1  LIG1        0.0651
     38 H           6.1596   10.3871   24.6486 H       1  LIG1        0.0830
     39 H           2.1714    3.0455   21.7958 H       1  LIG1        0.0462
     40 H           3.2911    4.2543   24.2968 H       1  LIG1        0.0277
     41 H           1.5933    4.2325   23.9534 H       1  LIG1        0.0277
     42 H           1.8033    5.8555   22.3769 H       1  LIG1        0.0281
     43 H           3.1818    5.0629   21.6502 H       1  LIG1        0.0281
     44 H           3.2103    7.3854   23.2245 H       1  LIG1        0.0461
     45 H           3.9009    6.1377   24.2222 H       1  LIG1        0.0461
     46 H           9.7583    2.1442   17.7419 H       1  LIG1        0.2883
     47 H           7.9792    2.3751   21.3328 H       1  LIG1        0.0624
     48 H           7.3320    3.8180   23.2069 H       1  LIG1        0.0618
     49 H           4.9701    4.0594   23.8070 H       1  LIG1        0.0621
     50 H           3.8789    1.4205   20.6430 H       1  LIG1        0.0627
     51 H           5.1991   -1.4806   17.4783 H       1  LIG1        0.0618
     52 H           4.4804   -0.0501   19.3441 H       1  LIG1        0.0624
     53 H           8.4191    1.5241   19.6377 H       1  LIG1        0.0632
     54 H           7.5307   -1.4013   16.6951 H       1  LIG1        0.0626
@<TRIPOS>BOND
     1     1     2    2
     2     1     3    1
     3     1    11    1
     4     3    30    1
     5     4     5   ar
     6     4     9   ar
     7     5     6   ar
     8     6     7   ar
     9     7     8   ar
    10     7    10    1
    11     8     9   ar
    12    10    14    1
    13    10    31    1
    14    11    12    1
    15    11    21    1
    16    12    13    1
    17    13    14    1
    18    15    17    1
    19    15    32    1
    20    16    17    2
    21    16    33    1
    22    16    34    1
    23    17    28    1
    24    18    19   ar
    25    18    23   ar
    26    19    20   ar
    27    20    21   ar
    28    21    22   ar
    29    22    23   ar
    30    23    26    1
    31    24    25   ar
    32    24    29   ar
    33    25    26   ar
    34    26    27   ar
    35    27    28   ar
    36    28    29   ar
    37     5    35    1
    38     6    36    1
    39     8    37    1
    40     9    38    1
    41    11    39    1
    42    12    40    1
    43    12    41    1
    44    13    42    1
    45    13    43    1
    46    14    44    1
    47    14    45    1
    48    15    46    1
    49    18    47    1
    50    19    48    1
    51    20    49    1
    52    22    50    1
    53    24    51    1
    54    25    52    1
    55    27    53    1
    56    29    54    1
