@<TRIPOS>MOLECULE
pose6.pdb
 54 56 0 0 0
SMALL
GASTEIGER

@<TRIPOS>ATOM
      1  C1         6.4430    1.2490   21.2440 C.2     1  LIG1        0.3122
      2  O1         6.4300    0.8120   22.4030 O.2     1  LIG1       -0.2503
      3  O2         5.5600    0.7680   20.3160 O.3     1  LIG1       -0.4802
      4  N1        12.5390   -2.9010   17.3910 N.ar    1  LIG1       -0.2631
      5  C2        11.5960   -2.7260   16.3600 C.ar    1  LIG1        0.0293
      6  C3        10.5890   -1.7480   16.4930 C.ar    1  LIG1       -0.0227
      7  C4        10.5240   -0.9490   17.6540 C.ar    1  LIG1        0.0300
      8  C5        11.4800   -1.1280   18.6920 C.ar    1  LIG1       -0.0227
      9  C6        12.4800   -2.1010   18.5550 C.ar    1  LIG1        0.0293
     10  N2         9.4430    0.0670   17.7500 N.pl3   1  LIG1       -0.3438
     11  C7         7.4590    2.3470   20.8680 C.3     1  LIG1        0.0813
     12  C8         7.9640    2.1600   19.4360 C.3     1  LIG1       -0.0346
     13  C9         9.4290    1.7440   19.5200 C.3     1  LIG1       -0.0364
     14  C10        9.9470    1.4060   18.1270 C.3     1  LIG1        0.0091
     15  N3         9.7720   10.8960   24.4600 N.pl3   1  LIG1       -0.2497
     16  N4         9.7970   10.0600   22.3330 N.2     1  LIG1       -0.2884
     17  C11        9.3800    9.9920   23.5810 C.2     1  LIG1        0.2662
     18  C12        5.5730    6.2800   21.3370 C.ar    1  LIG1       -0.0540
     19  C13        5.1390    5.3880   20.3180 C.ar    1  LIG1       -0.0609
     20  C14        5.7570    4.1190   20.1780 C.ar    1  LIG1       -0.0577
     21  C15        6.8130    3.7300   21.0530 C.ar    1  LIG1       -0.0331
     22  C16        7.2570    4.6250   22.0810 C.ar    1  LIG1       -0.0501
     23  C17        6.6360    5.9030   22.2270 C.ar    1  LIG1       -0.0176
     24  C18        7.1090    7.6440   25.6940 C.ar    1  LIG1       -0.0604
     25  C19        6.6640    6.7280   24.6960 C.ar    1  LIG1       -0.0540
     26  C20        7.1030    6.8790   23.3420 C.ar    1  LIG1       -0.0171
     27  C21        7.9790    7.9440   23.0060 C.ar    1  LIG1       -0.0393
     28  C22        8.4270    8.8550   23.9940 C.ar    1  LIG1        0.0614
     29  C23        7.9920    8.7090   25.3410 C.ar    1  LIG1       -0.0470
     30  H1         4.8720    0.1890   20.5790 H       1  LIG1        0.2951
     31  H2         8.4930   -0.1290   17.5820 H       1  LIG1        0.1461
     32  H3        10.3820   11.6180   24.1850 H       1  LIG1        0.2883
     33  H4        10.4070   10.7820   22.0560 H       1  LIG1        0.3009
     34  H5         9.5000    9.3890   21.6770 H       1  LIG1        0.3009
     35 H          11.6417   -3.3109   15.5110 H       1  LIG1        0.0830
     36 H           9.8972   -1.6162   15.7386 H       1  LIG1        0.0651
     37 H          11.4377   -0.5443   19.5420 H       1  LIG1        0.0651
     38 H          13.1751   -2.2336   19.3062 H       1  LIG1        0.0830
     39 H           8.3073    2.2729   21.5160 H       1  LIG1        0.0462
     40 H           7.8750    3.0782   18.8939 H       1  LIG1        0.0277
     41 H           7.3884    1.4157   18.9264 H       1  LIG1        0.0277
     42 H           9.5193    0.8848   20.1513 H       1  LIG1        0.0281
     43 H          10.0038    2.5499   19.9262 H       1  LIG1        0.0281
     44 H           9.5968    2.1340   17.4254 H       1  LIG1        0.0461
     45 H          11.0170    1.4090   18.1234 H       1  LIG1        0.0461
     46 H           9.4542   10.8479   25.3905 H       1  LIG1        0.2883
     47 H           5.1221    7.2028   21.4377 H       1  LIG1        0.0624
     48 H           4.3752    5.6637   19.6811 H       1  LIG1        0.0618
     49 H           5.4401    3.4732   19.4380 H       1  LIG1        0.0621
     50 H           8.0232    4.3467   22.7139 H       1  LIG1        0.0627
     51 H           6.7931    7.5373   26.6707 H       1  LIG1        0.0618
     52 H           6.0263    5.9572   24.9495 H       1  LIG1        0.0624
     53 H           8.2936    8.0561   22.0295 H       1  LIG1        0.0632
     54 H           8.3146    9.3727   26.0625 H       1  LIG1        0.0626
@<TRIPOS>BOND
     1     1     2    2
     2     1     3    1
     3     1    11    1
     4     3    30    1
     5     4     5   ar
     6     4     9   ar
     7     5     6   ar
     8     6     7   ar
     9     7     8   ar
    10     7    10    1
    11     8     9   ar
    12    10    14    1
    13    10    31    1
    14    11    12    1
    15    11    21    1
    16    12    13    1
    17    13    14    1
    18    15    17    1
    19    15    32    1
    20    16    17    2
    21    16    33    1
    22    16    34    1
    23    17    28    1
    24    18    19   ar
    25    18    23   ar
    26    19    20   ar
    27    20    21   ar
    28    21    22   ar
    29    22    23   ar
    30    23    26    1
    31    24    25   ar
    32    24    29   ar
    33    25    26   ar
    34    26    27   ar
    35    27    28   ar
    36    28    29   ar
    37     5    35    1
    38     6    36    1
    39     8    37    1
    40     9    38    1
    41    11    39    1
    42    12    40    1
    43    12    41    1
    44    13    42    1
    45    13    43    1
    46    14    44    1
    47    14    45    1
    48    15    46    1
    49    18    47    1
    50    19    48    1
    51    20    49    1
    52    22    50    1
    53    24    51    1
    54    25    52    1
    55    27    53    1
    56    29    54    1
