REMARK  11 active torsions:
REMARK  status: ('A' for Active; 'I' for Inactive)
REMARK    1  A    between atoms: N_1  and  CA_3 
REMARK    2  A    between atoms: N_1  and  C1A_12 
REMARK    3  A    between atoms: CA_3  and  CB_4 
REMARK    4  A    between atoms: CA_3  and  C_43 
REMARK    5  A    between atoms: CB_4  and  CG_5 
REMARK    6  A    between atoms: CZ_10  and  OH_11 
REMARK    7  A    between atoms: OH_11  and  C3A_39 
REMARK    8  A    between atoms: C1F_13  and  C1G_24 
REMARK    9  A    between atoms: C1H_18  and  C1G_24 
REMARK   10  A    between atoms: C3C_30  and  C3B_40 
REMARK   11  A    between atoms: C3A_39  and  C3B_40 
ROOT
HETATM    1  CG  570 D 200      13.021  -3.994  12.072  1.00 34.93    -0.056 A 
HETATM    2  CD1 570 D 200      11.764  -4.681  12.128  1.00 36.13     0.010 A 
HETATM    3  CD2 570 D 200      13.285  -3.065  11.012  1.00 35.34     0.010 A 
HETATM    4  CE1 570 D 200      10.780  -4.450  11.148  1.00 35.68     0.037 A 
HETATM    5  CE2 570 D 200      12.304  -2.826  10.023  1.00 34.88     0.037 A 
HETATM    6  CZ  570 D 200      11.016  -3.528  10.079  1.00 35.98     0.068 A 
ENDROOT
BRANCH   1   7
HETATM    7  CB  570 D 200      14.059  -4.280  13.163  1.00 34.81     0.074 C 
BRANCH   7   8
HETATM    8  CA  570 D 200      15.175  -5.287  12.743  1.00 35.38     0.187 C 
BRANCH   8   9
HETATM    9  N   570 D 200      14.630  -6.623  12.297  1.00 36.24    -0.375 N 
ATOM     10  HN  570 D 200      13.644  -6.753  12.522  1.00  0.00     0.160 HD
BRANCH   9  11
HETATM   11  C1A 570 D 200      15.224  -7.767  11.610  1.00 37.40     0.043 A 
HETATM   12  C1F 570 D 200      14.395  -8.886  11.148  1.00 39.24     0.041 A 
HETATM   13  C1E 570 D 200      15.070  -9.972  10.477  1.00 39.11     0.018 A 
HETATM   14  C1D 570 D 200      16.470  -9.963  10.274  1.00 38.73     0.001 A 
HETATM   15  C1C 570 D 200      17.249  -8.882  10.725  1.00 38.13     0.002 A 
HETATM   16  C1B 570 D 200      16.646  -7.805  11.378  1.00 36.97     0.030 A 
BRANCH  12  17
HETATM   17  C1G 570 D 200      12.822  -9.023  11.307  1.00 41.38     0.194 C 
HETATM   18  O1G 570 D 200      12.212  -8.026  11.745  1.00 42.16    -0.287 OA
BRANCH  17  19
HETATM   19  C1H 570 D 200      11.891 -10.170  10.945  1.00 42.73     0.015 A 
HETATM   20  C1I 570 D 200      10.589  -9.887  10.383  1.00 44.25     0.015 A 
HETATM   21  C1J 570 D 200       9.704 -10.948  10.035  1.00 44.58     0.001 A 
HETATM   22  C1K 570 D 200      10.107 -12.300  10.243  1.00 44.26     0.000 A 
HETATM   23  C1L 570 D 200      11.387 -12.588  10.797  1.00 44.32     0.001 A 
HETATM   24  C1M 570 D 200      12.269 -11.535  11.144  1.00 43.55     0.015 A 
ENDBRANCH  17  19
ENDBRANCH  12  17
ENDBRANCH   9  11
ENDBRANCH   8   9
BRANCH   8  25
HETATM   25  C   570 D 200      16.187  -5.446  13.843  1.00 34.52     0.197 C 
HETATM   26  O2  570 D 200      17.259  -4.803  13.731  1.00 34.47    -0.646 OA
HETATM   27  O1  570 D 200      15.952  -6.263  14.792  1.00 33.12    -0.646 OA
ENDBRANCH   8  25
ENDBRANCH   7   8
ENDBRANCH   1   7
BRANCH   6  28
HETATM   28  OH  570 D 200       9.937  -3.385   9.155  1.00 36.39    -0.351 OA
BRANCH  28  29
HETATM   29  C3A 570 D 200      10.133  -2.686   7.902  1.00 37.03     0.181 C 
BRANCH  29  30
HETATM   30  C3B 570 D 200       8.886  -2.913   7.026  1.00 36.82     0.086 C 
BRANCH  30  31
HETATM   31  C3C 570 D 200       8.930  -4.257   6.221  1.00 37.38     0.043 A 
HETATM   32  N3H 570 D 200       9.621  -4.351   5.032  1.00 37.12    -0.337 N 
HETATM   33  C3G 570 D 200       9.463  -5.675   4.559  1.00 38.63     0.158 A 
ATOM     34  H3H 570 D 200      10.148  -3.605   4.578  1.00  0.00     0.168 HD
HETATM   35  O3F 570 D 200       8.679  -6.311   5.515  1.00 39.12    -0.296 OA
HETATM   36  C3I 570 D 200       9.991  -6.196   3.378  1.00 38.84     0.015 A 
HETATM   37  C3D 570 D 200       8.300  -5.505   6.567  1.00 38.13     0.074 A 
HETATM   38  C3E 570 D 200       7.435  -5.857   7.784  1.00 38.01     0.079 C 
HETATM   39  C3N 570 D 200      10.785  -5.404   2.469  1.00 39.01     0.016 A 
HETATM   40  C3J 570 D 200       9.729  -7.569   3.054  1.00 40.05     0.016 A 
HETATM   41  C3M 570 D 200      11.294  -5.984   1.278  1.00 39.51     0.001 A 
HETATM   42  C3L 570 D 200      11.023  -7.344   0.976  1.00 39.34     0.000 A 
HETATM   43  C3K 570 D 200      10.244  -8.137   1.862  1.00 39.52     0.001 A 
ENDBRANCH  30  31
ENDBRANCH  29  30
ENDBRANCH  28  29
ENDBRANCH   6  28
TORSDOF 11
