REMARK  11 active torsions:
REMARK  status: ('A' for Active; 'I' for Inactive)
REMARK    1  A    between atoms: N_1  and  CA_3 
REMARK    2  A    between atoms: N_1  and  C1A_12 
REMARK    3  A    between atoms: CA_3  and  CB_4 
REMARK    4  A    between atoms: CA_3  and  C_43 
REMARK    5  A    between atoms: CB_4  and  CG_5 
REMARK    6  A    between atoms: CZ_10  and  OH_11 
REMARK    7  A    between atoms: OH_11  and  C3A_39 
REMARK    8  A    between atoms: C1F_13  and  C1G_24 
REMARK    9  A    between atoms: C1H_18  and  C1G_24 
REMARK   10  A    between atoms: C3C_30  and  C3B_40 
REMARK   11  A    between atoms: C3A_39  and  C3B_40 
ROOT
HETATM    1  CG  570 D 200      46.597 -37.446  20.203  1.00 34.93    -0.056 A 
HETATM    2  CD1 570 D 200      45.756 -38.209  21.077  1.00 36.13     0.010 A 
HETATM    3  CD2 570 D 200      46.917 -37.945  18.897  1.00 35.34     0.010 A 
HETATM    4  CE1 570 D 200      45.237 -39.451  20.664  1.00 35.68     0.037 A 
HETATM    5  CE2 570 D 200      46.402 -39.191  18.473  1.00 34.88     0.037 A 
HETATM    6  CZ  570 D 200      45.539 -39.974  19.366  1.00 35.98     0.068 A 
ENDROOT
BRANCH   1   7
HETATM    7  CB  570 D 200      47.136 -36.100  20.699  1.00 34.81     0.074 C 
BRANCH   7   8
HETATM    8  CA  570 D 200      47.977 -35.313  19.646  1.00 35.38     0.187 C 
BRANCH   8   9
HETATM    9  N   570 D 200      47.188 -34.947  18.412  1.00 36.24    -0.375 N 
ATOM     10  HN  570 D 200      46.719 -34.045  18.485  1.00  0.00     0.160 HD
BRANCH   9  11
HETATM   11  C1A 570 D 200      46.957 -35.619  17.135  1.00 37.40     0.043 A 
HETATM   12  C1F 570 D 200      47.960 -35.574  16.065  1.00 39.24     0.041 A 
HETATM   13  C1E 570 D 200      47.646 -36.269  14.839  1.00 39.11     0.018 A 
HETATM   14  C1D 570 D 200      46.424 -36.962  14.671  1.00 38.73     0.001 A 
HETATM   15  C1C 570 D 200      45.473 -36.993  15.708  1.00 38.13     0.002 A 
HETATM   16  C1B 570 D 200      45.728 -36.339  16.915  1.00 36.97     0.030 A 
BRANCH  12  17
HETATM   17  C1G 570 D 200      49.366 -34.840  16.120  1.00 41.38     0.194 C 
HETATM   18  O1G 570 D 200      50.016 -34.790  15.056  1.00 42.16    -0.287 OA
BRANCH  17  19
HETATM   19  C1H 570 D 200      50.050 -34.106  17.262  1.00 42.73     0.015 A 
HETATM   20  C1I 570 D 200      51.467 -34.290  17.487  1.00 44.25     0.015 A 
HETATM   21  C1J 570 D 200      52.126 -33.608  18.550  1.00 44.58     0.001 A 
HETATM   22  C1K 570 D 200      51.382 -32.737  19.399  1.00 44.26     0.000 A 
HETATM   23  C1L 570 D 200      49.986 -32.551  19.186  1.00 44.32     0.001 A 
HETATM   24  C1M 570 D 200      49.328 -33.227  18.130  1.00 43.55     0.015 A 
ENDBRANCH  17  19
ENDBRANCH  12  17
ENDBRANCH   9  11
ENDBRANCH   8   9
BRANCH   8  25
HETATM   25  C   570 D 200      49.227 -36.070  19.293  1.00 34.52     0.197 C 
HETATM   26  O2  570 D 200      49.114 -37.010  18.469  1.00 34.47    -0.646 OA
HETATM   27  O1  570 D 200      50.318 -35.780  19.884  1.00 33.12    -0.646 OA
ENDBRANCH   8  25
ENDBRANCH   7   8
ENDBRANCH   1   7
BRANCH   6  28
HETATM   28  OH  570 D 200      44.949 -41.240  19.072  1.00 36.39    -0.351 OA
BRANCH  28  29
HETATM   29  C3A 570 D 200      45.476 -42.450  19.667  1.00 37.03     0.181 C 
BRANCH  29  30
HETATM   30  C3B 570 D 200      47.014 -42.372  19.630  1.00 36.82     0.086 C 
BRANCH  30  31
HETATM   31  C3C 570 D 200      47.630 -42.895  18.287  1.00 37.38     0.043 A 
HETATM   32  N3H 570 D 200      47.657 -42.101  17.161  1.00 37.12    -0.337 N 
HETATM   33  C3G 570 D 200      48.264 -42.856  16.130  1.00 38.63     0.158 A 
ATOM     34  H3H 570 D 200      47.305 -41.147  17.085  1.00  0.00     0.168 HD
HETATM   35  O3F 570 D 200      48.579 -44.079  16.713  1.00 39.12    -0.296 OA
HETATM   36  C3I 570 D 200      48.480 -42.435  14.818  1.00 38.84     0.015 A 
HETATM   37  C3D 570 D 200      48.213 -44.188  18.037  1.00 38.13     0.074 A 
HETATM   38  C3E 570 D 200      48.389 -45.379  18.988  1.00 38.01     0.079 C 
HETATM   39  C3N 570 D 200      48.085 -41.128  14.350  1.00 39.01     0.016 A 
HETATM   40  C3J 570 D 200      49.114 -43.338  13.901  1.00 40.05     0.016 A 
HETATM   41  C3M 570 D 200      48.325 -40.752  13.002  1.00 39.51     0.001 A 
HETATM   42  C3L 570 D 200      48.953 -41.661  12.111  1.00 39.34     0.000 A 
HETATM   43  C3K 570 D 200      49.349 -42.951  12.558  1.00 39.52     0.001 A 
ENDBRANCH  30  31
ENDBRANCH  29  30
ENDBRANCH  28  29
ENDBRANCH   6  28
TORSDOF 11
