REMARK  11 active torsions:
REMARK  status: ('A' for Active; 'I' for Inactive)
REMARK    1  A    between atoms: N_1  and  CA_3 
REMARK    2  A    between atoms: N_1  and  C1A_12 
REMARK    3  A    between atoms: CA_3  and  CB_4 
REMARK    4  A    between atoms: CA_3  and  C_43 
REMARK    5  A    between atoms: CB_4  and  CG_5 
REMARK    6  A    between atoms: CZ_10  and  OH_11 
REMARK    7  A    between atoms: OH_11  and  C3A_39 
REMARK    8  A    between atoms: C1F_13  and  C1G_24 
REMARK    9  A    between atoms: C1H_18  and  C1G_24 
REMARK   10  A    between atoms: C3C_30  and  C3B_40 
REMARK   11  A    between atoms: C3A_39  and  C3B_40 
ROOT
HETATM    1  CG  570 D 200      47.614 -35.643  15.583  1.00 34.93    -0.056 A 
HETATM    2  CD1 570 D 200      48.115 -34.684  14.643  1.00 36.13     0.010 A 
HETATM    3  CD2 570 D 200      48.400 -36.007  16.726  1.00 35.34     0.010 A 
HETATM    4  CE1 570 D 200      49.377 -34.091  14.832  1.00 35.68     0.037 A 
HETATM    5  CE2 570 D 200      49.669 -35.417  16.925  1.00 34.88     0.037 A 
HETATM    6  CZ  570 D 200      50.184 -34.434  15.964  1.00 35.98     0.068 A 
ENDROOT
BRANCH   1   7
HETATM    7  CB  570 D 200      46.234 -36.260  15.332  1.00 34.81     0.074 C 
BRANCH   7   8
HETATM    8  CA  570 D 200      46.233 -37.817  15.223  1.00 35.38     0.187 C 
BRANCH   8   9
HETATM    9  N   570 D 200      47.563 -38.436  15.582  1.00 36.24    -0.375 N 
ATOM     10  HN  570 D 200      48.247 -37.759  15.919  1.00  0.00     0.160 HD
BRANCH   9  11
HETATM   11  C1A 570 D 200      48.072 -39.805  15.545  1.00 37.40     0.043 A 
HETATM   12  C1F 570 D 200      47.962 -40.685  16.714  1.00 39.24     0.041 A 
HETATM   13  C1E 570 D 200      48.492 -42.022  16.584  1.00 39.11     0.018 A 
HETATM   14  C1D 570 D 200      49.094 -42.468  15.384  1.00 38.73     0.001 A 
HETATM   15  C1C 570 D 200      49.193 -41.609  14.274  1.00 38.13     0.002 A 
HETATM   16  C1B 570 D 200      48.694 -40.307  14.346  1.00 36.97     0.030 A 
BRANCH  12  17
HETATM   17  C1G 570 D 200      47.311 -40.316  18.114  1.00 41.38     0.194 C 
HETATM   18  O1G 570 D 200      47.321 -41.205  18.990  1.00 42.16    -0.287 OA
BRANCH  17  19
HETATM   19  C1H 570 D 200      46.719 -39.006  18.611  1.00 42.73     0.015 A 
HETATM   20  C1I 570 D 200      45.360 -38.975  19.104  1.00 44.25     0.015 A 
HETATM   21  C1J 570 D 200      44.788 -37.759  19.577  1.00 44.58     0.001 A 
HETATM   22  C1K 570 D 200      45.564 -36.562  19.563  1.00 44.26     0.000 A 
HETATM   23  C1L 570 D 200      46.903 -36.583  19.077  1.00 44.32     0.001 A 
HETATM   24  C1M 570 D 200      47.473 -37.792  18.607  1.00 43.55     0.015 A 
ENDBRANCH  17  19
ENDBRANCH  12  17
ENDBRANCH   9  11
ENDBRANCH   8   9
BRANCH   8  25
HETATM   25  C   570 D 200      45.774 -38.254  13.860  1.00 34.52     0.197 C 
HETATM   26  O2  570 D 200      46.223 -39.342  13.427  1.00 34.47    -0.646 OA
HETATM   27  O1  570 D 200      45.016 -37.485  13.183  1.00 33.12    -0.646 OA
ENDBRANCH   8  25
ENDBRANCH   7   8
ENDBRANCH   1   7
BRANCH   6  28
HETATM   28  OH  570 D 200      51.440 -33.759  16.038  1.00 36.39    -0.351 OA
BRANCH  28  29
HETATM   29  C3A 570 D 200      52.220 -33.795  17.258  1.00 37.03     0.181 C 
BRANCH  29  30
HETATM   30  C3B 570 D 200      51.245 -33.797  18.451  1.00 36.82     0.086 C 
BRANCH  30  31
HETATM   31  C3C 570 D 200      51.879 -34.361  19.769  1.00 37.38     0.043 A 
HETATM   32  N3H 570 D 200      53.246 -34.419  19.931  1.00 37.12    -0.337 N 
HETATM   33  C3G 570 D 200      53.493 -34.975  21.208  1.00 38.63     0.158 A 
ATOM     34  H3H 570 D 200      53.949 -34.117  19.256  1.00  0.00     0.168 HD
HETATM   35  O3F 570 D 200      52.235 -35.214  21.750  1.00 39.12    -0.296 OA
HETATM   36  C3I 570 D 200      54.745 -35.222  21.771  1.00 38.84     0.015 A 
HETATM   37  C3D 570 D 200      51.187 -34.872  20.923  1.00 38.13     0.074 A 
HETATM   38  C3E 570 D 200      49.680 -35.004  21.179  1.00 38.01     0.079 C 
HETATM   39  C3N 570 D 200      55.977 -34.930  21.077  1.00 39.01     0.016 A 
HETATM   40  C3J 570 D 200      54.809 -35.793  23.086  1.00 40.05     0.016 A 
HETATM   41  C3M 570 D 200      57.225 -35.205  21.695  1.00 39.51     0.001 A 
HETATM   42  C3L 570 D 200      57.265 -35.771  22.997  1.00 39.34     0.000 A 
HETATM   43  C3K 570 D 200      56.061 -36.063  23.693  1.00 39.52     0.001 A 
ENDBRANCH  30  31
ENDBRANCH  29  30
ENDBRANCH  28  29
ENDBRANCH   6  28
TORSDOF 11
