REMARK  11 active torsions:
REMARK  status: ('A' for Active; 'I' for Inactive)
REMARK    1  A    between atoms: N_1  and  CA_3 
REMARK    2  A    between atoms: N_1  and  C1A_12 
REMARK    3  A    between atoms: CA_3  and  CB_4 
REMARK    4  A    between atoms: CA_3  and  C_43 
REMARK    5  A    between atoms: CB_4  and  CG_5 
REMARK    6  A    between atoms: CZ_10  and  OH_11 
REMARK    7  A    between atoms: OH_11  and  C3A_39 
REMARK    8  A    between atoms: C1F_13  and  C1G_24 
REMARK    9  A    between atoms: C1H_18  and  C1G_24 
REMARK   10  A    between atoms: C3C_30  and  C3B_40 
REMARK   11  A    between atoms: C3A_39  and  C3B_40 
ROOT
HETATM    1  CG  570 D 200      46.485 -36.062  19.488  1.00 34.93    -0.056 A 
HETATM    2  CD1 570 D 200      46.554 -36.969  20.596  1.00 36.13     0.010 A 
HETATM    3  CD2 570 D 200      45.976 -36.510  18.225  1.00 35.34     0.010 A 
HETATM    4  CE1 570 D 200      46.123 -38.302  20.456  1.00 35.68     0.037 A 
HETATM    5  CE2 570 D 200      45.540 -37.846  18.073  1.00 34.88     0.037 A 
HETATM    6  CZ  570 D 200      45.609 -38.776  19.207  1.00 35.98     0.068 A 
ENDROOT
BRANCH   1   7
HETATM    7  CB  570 D 200      46.967 -34.622  19.692  1.00 34.81     0.074 C 
BRANCH   7   8
HETATM    8  CA  570 D 200      48.508 -34.429  19.535  1.00 35.38     0.187 C 
BRANCH   8   9
HETATM    9  N   570 D 200      49.297 -34.988  20.695  1.00 36.24    -0.375 N 
ATOM     10  HN  570 D 200      48.714 -35.264  21.484  1.00  0.00     0.160 HD
BRANCH   9  11
HETATM   11  C1A 570 D 200      50.722 -35.215  20.919  1.00 37.40     0.043 A 
HETATM   12  C1F 570 D 200      51.684 -35.133  19.814  1.00 39.24     0.041 A 
HETATM   13  C1E 570 D 200      53.073 -35.370  20.131  1.00 39.11     0.018 A 
HETATM   14  C1D 570 D 200      53.492 -35.672  21.449  1.00 38.73     0.001 A 
HETATM   15  C1C 570 D 200      52.555 -35.748  22.495  1.00 38.13     0.002 A 
HETATM   16  C1B 570 D 200      51.200 -35.525  22.243  1.00 36.97     0.030 A 
BRANCH  12  17
HETATM   17  C1G 570 D 200      51.353 -34.803  18.298  1.00 41.38     0.194 C 
HETATM   18  O1G 570 D 200      52.181 -34.101  17.681  1.00 42.16    -0.287 OA
BRANCH  17  19
HETATM   19  C1H 570 D 200      50.200 -35.262  17.418  1.00 42.73     0.015 A 
HETATM   20  C1I 570 D 200      49.571 -36.540  17.670  1.00 44.25     0.015 A 
HETATM   21  C1J 570 D 200      48.488 -36.986  16.858  1.00 44.58     0.001 A 
HETATM   22  C1K 570 D 200      48.022 -36.165  15.790  1.00 44.26     0.000 A 
HETATM   23  C1L 570 D 200      48.637 -34.906  15.534  1.00 44.32     0.001 A 
HETATM   24  C1M 570 D 200      49.713 -34.460  16.339  1.00 43.55     0.015 A 
ENDBRANCH  17  19
ENDBRANCH  12  17
ENDBRANCH   9  11
ENDBRANCH   8   9
BRANCH   8  25
HETATM   25  C   570 D 200      48.840 -32.983  19.291  1.00 34.52     0.197 C 
HETATM   26  O2  570 D 200      48.867 -32.226  20.292  1.00 34.47    -0.646 OA
HETATM   27  O1  570 D 200      49.009 -32.576  18.096  1.00 33.12    -0.646 OA
ENDBRANCH   8  25
ENDBRANCH   7   8
ENDBRANCH   1   7
BRANCH   6  28
HETATM   28  OH  570 D 200      45.205 -40.145  19.200  1.00 36.39    -0.351 OA
BRANCH  28  29
HETATM   29  C3A 570 D 200      45.989 -41.144  19.896  1.00 37.03     0.181 C 
BRANCH  29  30
HETATM   30  C3B 570 D 200      45.638 -42.524  19.307  1.00 36.82     0.086 C 
BRANCH  30  31
HETATM   31  C3C 570 D 200      46.753 -43.099  18.368  1.00 37.38     0.043 A 
HETATM   32  N3H 570 D 200      47.206 -42.383  17.280  1.00 37.12    -0.337 N 
HETATM   33  C3G 570 D 200      48.194 -43.169  16.643  1.00 38.63     0.158 A 
ATOM     34  H3H 570 D 200      46.887 -41.459  16.990  1.00  0.00     0.168 HD
HETATM   35  O3F 570 D 200      48.284 -44.328  17.406  1.00 39.12    -0.296 OA
HETATM   36  C3I 570 D 200      48.904 -42.825  15.493  1.00 38.84     0.015 A 
HETATM   37  C3D 570 D 200      47.424 -44.369  18.481  1.00 38.13     0.074 A 
HETATM   38  C3E 570 D 200      47.239 -45.480  19.522  1.00 38.01     0.079 C 
HETATM   39  C3N 570 D 200      48.692 -41.579  14.795  1.00 39.01     0.016 A 
HETATM   40  C3J 570 D 200      49.876 -43.749  14.982  1.00 40.05     0.016 A 
HETATM   41  C3M 570 D 200      49.440 -41.282  13.626  1.00 39.51     0.001 A 
HETATM   42  C3L 570 D 200      50.396 -42.210  13.137  1.00 39.34     0.000 A 
HETATM   43  C3K 570 D 200      50.617 -43.441  13.814  1.00 39.52     0.001 A 
ENDBRANCH  30  31
ENDBRANCH  29  30
ENDBRANCH  28  29
ENDBRANCH   6  28
TORSDOF 11
