REMARK  11 active torsions:
REMARK  status: ('A' for Active; 'I' for Inactive)
REMARK    1  A    between atoms: N_1  and  CA_3 
REMARK    2  A    between atoms: N_1  and  C1A_12 
REMARK    3  A    between atoms: CA_3  and  CB_4 
REMARK    4  A    between atoms: CA_3  and  C_43 
REMARK    5  A    between atoms: CB_4  and  CG_5 
REMARK    6  A    between atoms: CZ_10  and  OH_11 
REMARK    7  A    between atoms: OH_11  and  C3A_39 
REMARK    8  A    between atoms: C1F_13  and  C1G_24 
REMARK    9  A    between atoms: C1H_18  and  C1G_24 
REMARK   10  A    between atoms: C3C_30  and  C3B_40 
REMARK   11  A    between atoms: C3A_39  and  C3B_40 
ROOT
HETATM    1  CG  570 D 200      47.961 -38.741  17.479  1.00 34.93    -0.056 A 
HETATM    2  CD1 570 D 200      46.916 -38.587  18.449  1.00 36.13     0.010 A 
HETATM    3  CD2 570 D 200      48.371 -40.052  17.067  1.00 35.34     0.010 A 
HETATM    4  CE1 570 D 200      46.284 -39.716  19.002  1.00 35.68     0.037 A 
HETATM    5  CE2 570 D 200      47.743 -41.192  17.617  1.00 34.88     0.037 A 
HETATM    6  CZ  570 D 200      46.672 -41.037  18.609  1.00 35.98     0.068 A 
ENDROOT
BRANCH   1   7
HETATM    7  CB  570 D 200      48.618 -37.480  16.906  1.00 34.81     0.074 C 
BRANCH   7   8
HETATM    8  CA  570 D 200      47.681 -36.233  16.853  1.00 35.38     0.187 C 
BRANCH   8   9
HETATM    9  N   570 D 200      47.785 -35.360  18.081  1.00 36.24    -0.375 N 
ATOM     10  HN  570 D 200      46.931 -34.840  18.281  1.00  0.00     0.160 HD
BRANCH   9  11
HETATM   11  C1A 570 D 200      48.857 -35.107  19.040  1.00 37.40     0.043 A 
HETATM   12  C1F 570 D 200      50.208 -34.755  18.590  1.00 39.24     0.041 A 
HETATM   13  C1E 570 D 200      51.202 -34.521  19.610  1.00 39.11     0.018 A 
HETATM   14  C1D 570 D 200      50.892 -34.628  20.986  1.00 38.73     0.001 A 
HETATM   15  C1C 570 D 200      49.591 -34.968  21.400  1.00 38.13     0.002 A 
HETATM   16  C1B 570 D 200      48.592 -35.203  20.454  1.00 36.97     0.030 A 
BRANCH  12  17
HETATM   17  C1G 570 D 200      50.690 -34.599  17.086  1.00 41.38     0.194 C 
HETATM   18  O1G 570 D 200      51.840 -35.004  16.819  1.00 42.16    -0.287 OA
BRANCH  17  19
HETATM   19  C1H 570 D 200      49.948 -34.087  15.861  1.00 42.73     0.015 A 
HETATM   20  C1I 570 D 200      50.584 -34.138  14.563  1.00 44.25     0.015 A 
HETATM   21  C1J 570 D 200      49.904 -33.666  13.404  1.00 44.58     0.001 A 
HETATM   22  C1K 570 D 200      48.584 -33.139  13.526  1.00 44.26     0.000 A 
HETATM   23  C1L 570 D 200      47.950 -33.083  14.800  1.00 44.32     0.001 A 
HETATM   24  C1M 570 D 200      48.624 -33.552  15.954  1.00 43.55     0.015 A 
ENDBRANCH  17  19
ENDBRANCH  12  17
ENDBRANCH   9  11
ENDBRANCH   8   9
BRANCH   8  25
HETATM   25  C   570 D 200      46.259 -36.648  16.593  1.00 34.52     0.197 C 
HETATM   26  O2  570 D 200      45.389 -36.243  17.401  1.00 34.47    -0.646 OA
HETATM   27  O1  570 D 200      46.008 -37.435  15.623  1.00 33.12    -0.646 OA
ENDBRANCH   8  25
ENDBRANCH   7   8
ENDBRANCH   1   7
BRANCH   6  28
HETATM   28  OH  570 D 200      45.951 -42.093  19.244  1.00 36.39    -0.351 OA
BRANCH  28  29
HETATM   29  C3A 570 D 200      46.583 -42.901  20.267  1.00 37.03     0.181 C 
BRANCH  29  30
HETATM   30  C3B 570 D 200      47.740 -43.681  19.614  1.00 36.82     0.086 C 
BRANCH  30  31
HETATM   31  C3C 570 D 200      47.373 -44.277  18.212  1.00 37.38     0.043 A 
HETATM   32  N3H 570 D 200      48.232 -44.157  17.141  1.00 37.12    -0.337 N 
HETATM   33  C3G 570 D 200      47.614 -44.785  16.034  1.00 38.63     0.158 A 
ATOM     34  H3H 570 D 200      49.144 -43.700  17.146  1.00  0.00     0.168 HD
HETATM   35  O3F 570 D 200      46.401 -45.262  16.518  1.00 39.12    -0.296 OA
HETATM   36  C3I 570 D 200      48.137 -44.883  14.745  1.00 38.84     0.015 A 
HETATM   37  C3D 570 D 200      46.171 -44.983  17.848  1.00 38.13     0.074 A 
HETATM   38  C3E 570 D 200      44.950 -45.338  18.707  1.00 38.01     0.079 C 
HETATM   39  C3N 570 D 200      49.418 -44.324  14.384  1.00 39.01     0.016 A 
HETATM   40  C3J 570 D 200      47.368 -45.561  13.741  1.00 40.05     0.016 A 
HETATM   41  C3M 570 D 200      49.900 -44.448  13.055  1.00 39.51     0.001 A 
HETATM   42  C3L 570 D 200      49.124 -45.122  12.076  1.00 39.34     0.000 A 
HETATM   43  C3K 570 D 200      47.861 -45.679  12.417  1.00 39.52     0.001 A 
ENDBRANCH  30  31
ENDBRANCH  29  30
ENDBRANCH  28  29
ENDBRANCH   6  28
TORSDOF 11
