REMARK  11 active torsions:
REMARK  status: ('A' for Active; 'I' for Inactive)
REMARK    1  A    between atoms: N_1  and  CA_3 
REMARK    2  A    between atoms: N_1  and  C1A_12 
REMARK    3  A    between atoms: CA_3  and  CB_4 
REMARK    4  A    between atoms: CA_3  and  C_43 
REMARK    5  A    between atoms: CB_4  and  CG_5 
REMARK    6  A    between atoms: CZ_10  and  OH_11 
REMARK    7  A    between atoms: OH_11  and  C3A_39 
REMARK    8  A    between atoms: C1F_13  and  C1G_24 
REMARK    9  A    between atoms: C1H_18  and  C1G_24 
REMARK   10  A    between atoms: C3C_30  and  C3B_40 
REMARK   11  A    between atoms: C3A_39  and  C3B_40 
ROOT
HETATM    1  CG  570 D 200      46.092 -36.224  19.481  1.00 34.93    -0.056 A 
HETATM    2  CD1 570 D 200      46.286 -37.092  20.605  1.00 36.13     0.010 A 
HETATM    3  CD2 570 D 200      45.441 -36.713  18.301  1.00 35.34     0.010 A 
HETATM    4  CE1 570 D 200      45.840 -38.427  20.562  1.00 35.68     0.037 A 
HETATM    5  CE2 570 D 200      44.990 -38.051  18.247  1.00 34.88     0.037 A 
HETATM    6  CZ  570 D 200      45.187 -38.941  19.397  1.00 35.98     0.068 A 
ENDROOT
BRANCH   1   7
HETATM    7  CB  570 D 200      46.595 -34.779  19.579  1.00 34.81     0.074 C 
BRANCH   7   8
HETATM    8  CA  570 D 200      47.969 -34.527  18.883  1.00 35.38     0.187 C 
BRANCH   8   9
HETATM    9  N   570 D 200      48.066 -35.159  17.515  1.00 36.24    -0.375 N 
ATOM     10  HN  570 D 200      48.150 -34.479  16.761  1.00  0.00     0.160 HD
BRANCH   9  11
HETATM   11  C1A 570 D 200      48.063 -36.544  17.051  1.00 37.40     0.043 A 
HETATM   12  C1F 570 D 200      47.685 -36.879  15.673  1.00 39.24     0.041 A 
HETATM   13  C1E 570 D 200      47.713 -38.275  15.304  1.00 39.11     0.018 A 
HETATM   14  C1D 570 D 200      48.087 -39.279  16.227  1.00 38.73     0.001 A 
HETATM   15  C1C 570 D 200      48.445 -38.939  17.544  1.00 38.13     0.002 A 
HETATM   16  C1B 570 D 200      48.436 -37.604  17.953  1.00 36.97     0.030 A 
BRANCH  12  17
HETATM   17  C1G 570 D 200      47.250 -35.857  14.539  1.00 41.38     0.194 C 
HETATM   18  O1G 570 D 200      46.286 -36.192  13.820  1.00 42.16    -0.287 OA
BRANCH  17  19
HETATM   19  C1H 570 D 200      47.776 -34.469  14.209  1.00 42.73     0.015 A 
HETATM   20  C1I 570 D 200      49.117 -34.098  14.604  1.00 44.25     0.015 A 
HETATM   21  C1J 570 D 200      49.628 -32.803  14.301  1.00 44.58     0.001 A 
HETATM   22  C1K 570 D 200      48.811 -31.867  13.602  1.00 44.26     0.000 A 
HETATM   23  C1L 570 D 200      47.489 -32.224  13.210  1.00 44.32     0.001 A 
HETATM   24  C1M 570 D 200      46.978 -33.511  13.510  1.00 43.55     0.015 A 
ENDBRANCH  17  19
ENDBRANCH  12  17
ENDBRANCH   9  11
ENDBRANCH   8   9
BRANCH   8  25
HETATM   25  C   570 D 200      49.100 -34.964  19.772  1.00 34.52     0.197 C 
HETATM   26  O2  570 D 200      50.238 -34.498  19.519  1.00 34.47    -0.646 OA
HETATM   27  O1  570 D 200      48.879 -35.825  20.684  1.00 33.12    -0.646 OA
ENDBRANCH   8  25
ENDBRANCH   7   8
ENDBRANCH   1   7
BRANCH   6  28
HETATM   28  OH  570 D 200      44.784 -40.308  19.484  1.00 36.39    -0.351 OA
BRANCH  28  29
HETATM   29  C3A 570 D 200      45.518 -41.237  20.318  1.00 37.03     0.181 C 
BRANCH  29  30
HETATM   30  C3B 570 D 200      46.949 -41.356  19.759  1.00 36.82     0.086 C 
BRANCH  30  31
HETATM   31  C3C 570 D 200      47.070 -42.382  18.580  1.00 37.38     0.043 A 
HETATM   32  N3H 570 D 200      47.347 -41.961  17.297  1.00 37.12    -0.337 N 
HETATM   33  C3G 570 D 200      47.384 -43.113  16.476  1.00 38.63     0.158 A 
ATOM     34  H3H 570 D 200      47.498 -40.998  16.996  1.00  0.00     0.168 HD
HETATM   35  O3F 570 D 200      47.131 -44.177  17.334  1.00 39.12    -0.296 OA
HETATM   36  C3I 570 D 200      47.622 -43.137  15.102  1.00 38.84     0.015 A 
HETATM   37  C3D 570 D 200      46.917 -43.813  18.646  1.00 38.13     0.074 A 
HETATM   38  C3E 570 D 200      46.601 -44.706  19.852  1.00 38.01     0.079 C 
HETATM   39  C3N 570 D 200      47.861 -41.938  14.336  1.00 39.01     0.016 A 
HETATM   40  C3J 570 D 200      47.624 -44.403  14.427  1.00 40.05     0.016 A 
HETATM   41  C3M 570 D 200      48.093 -42.020  12.938  1.00 39.51     0.001 A 
HETATM   42  C3L 570 D 200      48.090 -43.283  12.290  1.00 39.34     0.000 A 
HETATM   43  C3K 570 D 200      47.859 -44.473  13.031  1.00 39.52     0.001 A 
ENDBRANCH  30  31
ENDBRANCH  29  30
ENDBRANCH  28  29
ENDBRANCH   6  28
TORSDOF 11
