REMARK  11 active torsions:
REMARK  status: ('A' for Active; 'I' for Inactive)
REMARK    1  A    between atoms: N_1  and  CA_3 
REMARK    2  A    between atoms: N_1  and  C1A_12 
REMARK    3  A    between atoms: CA_3  and  CB_4 
REMARK    4  A    between atoms: CA_3  and  C_43 
REMARK    5  A    between atoms: CB_4  and  CG_5 
REMARK    6  A    between atoms: CZ_10  and  OH_11 
REMARK    7  A    between atoms: OH_11  and  C3A_39 
REMARK    8  A    between atoms: C1F_13  and  C1G_24 
REMARK    9  A    between atoms: C1H_18  and  C1G_24 
REMARK   10  A    between atoms: C3C_30  and  C3B_40 
REMARK   11  A    between atoms: C3A_39  and  C3B_40 
ROOT
HETATM    1  CG  570 D 200      47.711 -38.598  16.193  1.00 34.93    -0.056 A 
HETATM    2  CD1 570 D 200      47.349 -39.423  17.308  1.00 36.13     0.010 A 
HETATM    3  CD2 570 D 200      47.810 -37.177  16.354  1.00 35.34     0.010 A 
HETATM    4  CE1 570 D 200      47.090 -38.849  18.567  1.00 35.68     0.037 A 
HETATM    5  CE2 570 D 200      47.552 -36.590  17.613  1.00 34.88     0.037 A 
HETATM    6  CZ  570 D 200      47.182 -37.433  18.757  1.00 35.98     0.068 A 
ENDROOT
BRANCH   1   7
HETATM    7  CB  570 D 200      47.983 -39.273  14.844  1.00 34.81     0.074 C 
BRANCH   7   8
HETATM    8  CA  570 D 200      47.684 -40.804  14.816  1.00 35.38     0.187 C 
BRANCH   8   9
HETATM    9  N   570 D 200      48.499 -41.584  15.822  1.00 36.24    -0.375 N 
ATOM     10  HN  570 D 200      48.489 -41.174  16.755  1.00  0.00     0.160 HD
BRANCH   9  11
HETATM   11  C1A 570 D 200      49.296 -42.804  15.732  1.00 37.40     0.043 A 
HETATM   12  C1F 570 D 200      48.971 -43.982  16.544  1.00 39.24     0.041 A 
HETATM   13  C1E 570 D 200      49.815 -45.144  16.387  1.00 39.11     0.018 A 
HETATM   14  C1D 570 D 200      50.910 -45.149  15.492  1.00 38.73     0.001 A 
HETATM   15  C1C 570 D 200      51.208 -44.010  14.722  1.00 38.13     0.002 A 
HETATM   16  C1B 570 D 200      50.423 -42.861  14.834  1.00 36.97     0.030 A 
BRANCH  12  17
HETATM   17  C1G 570 D 200      47.776 -44.113  17.580  1.00 41.38     0.194 C 
HETATM   18  O1G 570 D 200      48.013 -43.778  18.758  1.00 42.16    -0.287 OA
BRANCH  17  19
HETATM   19  C1H 570 D 200      46.327 -44.525  17.366  1.00 42.73     0.015 A 
HETATM   20  C1I 570 D 200      45.914 -45.058  16.087  1.00 44.25     0.015 A 
HETATM   21  C1J 570 D 200      44.562 -45.452  15.869  1.00 44.58     0.001 A 
HETATM   22  C1K 570 D 200      43.610 -45.319  16.922  1.00 44.26     0.000 A 
HETATM   23  C1L 570 D 200      44.008 -44.795  18.185  1.00 44.32     0.001 A 
HETATM   24  C1M 570 D 200      45.351 -44.402  18.404  1.00 43.55     0.015 A 
ENDBRANCH  17  19
ENDBRANCH  12  17
ENDBRANCH   9  11
ENDBRANCH   8   9
BRANCH   8  25
HETATM   25  C   570 D 200      47.855 -41.353  13.427  1.00 34.52     0.197 C 
HETATM   26  O2  570 D 200      48.067 -40.526  12.508  1.00 34.47    -0.646 OA
HETATM   27  O1  570 D 200      47.711 -42.604  13.230  1.00 33.12    -0.646 OA
ENDBRANCH   8  25
ENDBRANCH   7   8
ENDBRANCH   1   7
BRANCH   6  28
HETATM   28  OH  570 D 200      46.897 -36.981  20.080  1.00 36.39    -0.351 OA
BRANCH  28  29
HETATM   29  C3A 570 D 200      47.713 -35.955  20.696  1.00 37.03     0.181 C 
BRANCH  29  30
HETATM   30  C3B 570 D 200      48.194 -34.997  19.590  1.00 36.82     0.086 C 
BRANCH  30  31
HETATM   31  C3C 570 D 200      49.748 -35.012  19.389  1.00 37.38     0.043 A 
HETATM   32  N3H 570 D 200      50.598 -35.297  20.436  1.00 37.12    -0.337 N 
HETATM   33  C3G 570 D 200      51.919 -35.226  19.936  1.00 38.63     0.158 A 
ATOM     34  H3H 570 D 200      50.324 -35.519  21.394  1.00  0.00     0.168 HD
HETATM   35  O3F 570 D 200      51.781 -34.904  18.591  1.00 39.12    -0.296 OA
HETATM   36  C3I 570 D 200      53.089 -35.434  20.667  1.00 38.84     0.015 A 
HETATM   37  C3D 570 D 200      50.476 -34.745  18.175  1.00 38.13     0.074 A 
HETATM   38  C3E 570 D 200      49.949 -34.382  16.781  1.00 38.01     0.079 C 
HETATM   39  C3N 570 D 200      53.076 -35.753  22.075  1.00 39.01     0.016 A 
HETATM   40  C3J 570 D 200      54.350 -35.320  19.993  1.00 40.05     0.016 A 
HETATM   41  C3M 570 D 200      54.297 -35.951  22.771  1.00 39.51     0.001 A 
HETATM   42  C3L 570 D 200      55.534 -35.834  22.086  1.00 39.34     0.000 A 
HETATM   43  C3K 570 D 200      55.563 -35.521  20.699  1.00 39.52     0.001 A 
ENDBRANCH  30  31
ENDBRANCH  29  30
ENDBRANCH  28  29
ENDBRANCH   6  28
TORSDOF 11
