REMARK  11 active torsions:
REMARK  status: ('A' for Active; 'I' for Inactive)
REMARK    1  A    between atoms: N_1  and  CA_3 
REMARK    2  A    between atoms: N_1  and  C1A_12 
REMARK    3  A    between atoms: CA_3  and  CB_4 
REMARK    4  A    between atoms: CA_3  and  C_43 
REMARK    5  A    between atoms: CB_4  and  CG_5 
REMARK    6  A    between atoms: CZ_10  and  OH_11 
REMARK    7  A    between atoms: OH_11  and  C3A_39 
REMARK    8  A    between atoms: C1F_13  and  C1G_24 
REMARK    9  A    between atoms: C1H_18  and  C1G_24 
REMARK   10  A    between atoms: C3C_30  and  C3B_40 
REMARK   11  A    between atoms: C3A_39  and  C3B_40 
ROOT
HETATM    1  CG  570 D 200      45.322 -39.094  19.427  1.00 34.93    -0.056 A 
HETATM    2  CD1 570 D 200      44.946 -38.218  18.356  1.00 36.13     0.010 A 
HETATM    3  CD2 570 D 200      45.982 -38.568  20.587  1.00 35.34     0.010 A 
HETATM    4  CE1 570 D 200      45.217 -36.838  18.434  1.00 35.68     0.037 A 
HETATM    5  CE2 570 D 200      46.259 -37.185  20.674  1.00 34.88     0.037 A 
HETATM    6  CZ  570 D 200      45.874 -36.286  19.580  1.00 35.98     0.068 A 
ENDROOT
BRANCH   1   7
HETATM    7  CB  570 D 200      45.004 -40.587  19.295  1.00 34.81     0.074 C 
BRANCH   7   8
HETATM    8  CA  570 D 200      46.261 -41.512  19.237  1.00 35.38     0.187 C 
BRANCH   8   9
HETATM    9  N   570 D 200      47.022 -41.397  17.938  1.00 36.24    -0.375 N 
ATOM     10  HN  570 D 200      47.105 -40.438  17.602  1.00  0.00     0.160 HD
BRANCH   9  11
HETATM   11  C1A 570 D 200      47.662 -42.376  17.064  1.00 37.40     0.043 A 
HETATM   12  C1F 570 D 200      48.155 -41.997  15.735  1.00 39.24     0.041 A 
HETATM   13  C1E 570 D 200      48.776 -43.032  14.943  1.00 39.11     0.018 A 
HETATM   14  C1D 570 D 200      48.903 -44.357  15.422  1.00 38.73     0.001 A 
HETATM   15  C1C 570 D 200      48.424 -44.703  16.698  1.00 38.13     0.002 A 
HETATM   16  C1B 570 D 200      47.817 -43.740  17.506  1.00 36.97     0.030 A 
BRANCH  12  17
HETATM   17  C1G 570 D 200      48.080 -40.554  15.078  1.00 41.38     0.194 C 
HETATM   18  O1G 570 D 200      48.075 -40.504  13.831  1.00 42.16    -0.287 OA
BRANCH  17  19
HETATM   19  C1H 570 D 200      47.941 -39.183  15.723  1.00 42.73     0.015 A 
HETATM   20  C1I 570 D 200      48.589 -38.916  16.987  1.00 44.25     0.015 A 
HETATM   21  C1J 570 D 200      48.473 -37.638  17.605  1.00 44.58     0.001 A 
HETATM   22  C1K 570 D 200      47.710 -36.614  16.970  1.00 44.26     0.000 A 
HETATM   23  C1L 570 D 200      47.067 -36.868  15.726  1.00 44.32     0.001 A 
HETATM   24  C1M 570 D 200      47.181 -38.139  15.109  1.00 43.55     0.015 A 
ENDBRANCH  17  19
ENDBRANCH  12  17
ENDBRANCH   9  11
ENDBRANCH   8   9
BRANCH   8  25
HETATM   25  C   570 D 200      45.884 -42.937  19.530  1.00 34.52     0.197 C 
HETATM   26  O2  570 D 200      46.604 -43.563  20.345  1.00 34.47    -0.646 OA
HETATM   27  O1  570 D 200      44.910 -43.466  18.900  1.00 33.12    -0.646 OA
ENDBRANCH   8  25
ENDBRANCH   7   8
ENDBRANCH   1   7
BRANCH   6  28
HETATM   28  OH  570 D 200      46.087 -34.875  19.532  1.00 36.39    -0.351 OA
BRANCH  28  29
HETATM   29  C3A 570 D 200      47.430 -34.335  19.579  1.00 37.03     0.181 C 
BRANCH  29  30
HETATM   30  C3B 570 D 200      48.334 -35.358  20.294  1.00 36.82     0.086 C 
BRANCH  30  31
HETATM   31  C3C 570 D 200      49.857 -35.164  19.981  1.00 37.38     0.043 A 
HETATM   32  N3H 570 D 200      50.821 -35.510  20.904  1.00 37.12    -0.337 N 
HETATM   33  C3G 570 D 200      52.079 -35.211  20.327  1.00 38.63     0.158 A 
ATOM     34  H3H 570 D 200      50.659 -35.907  21.829  1.00  0.00     0.168 HD
HETATM   35  O3F 570 D 200      51.788 -34.703  19.066  1.00 39.12    -0.296 OA
HETATM   36  C3I 570 D 200      53.324 -35.396  20.927  1.00 38.84     0.015 A 
HETATM   37  C3D 570 D 200      50.442 -34.631  18.778  1.00 38.13     0.074 A 
HETATM   38  C3E 570 D 200      49.758 -34.119  17.504  1.00 38.01     0.079 C 
HETATM   39  C3N 570 D 200      53.470 -35.929  22.261  1.00 39.01     0.016 A 
HETATM   40  C3J 570 D 200      54.502 -35.036  20.191  1.00 40.05     0.016 A 
HETATM   41  C3M 570 D 200      54.762 -36.092  22.825  1.00 39.51     0.001 A 
HETATM   42  C3L 570 D 200      55.915 -35.729  22.080  1.00 39.34     0.000 A 
HETATM   43  C3K 570 D 200      55.787 -35.204  20.765  1.00 39.52     0.001 A 
ENDBRANCH  30  31
ENDBRANCH  29  30
ENDBRANCH  28  29
ENDBRANCH   6  28
TORSDOF 11
