REMARK  11 active torsions:
REMARK  status: ('A' for Active; 'I' for Inactive)
REMARK    1  A    between atoms: N_1  and  CA_3 
REMARK    2  A    between atoms: N_1  and  C1A_12 
REMARK    3  A    between atoms: CA_3  and  CB_4 
REMARK    4  A    between atoms: CA_3  and  C_43 
REMARK    5  A    between atoms: CB_4  and  CG_5 
REMARK    6  A    between atoms: CZ_10  and  OH_11 
REMARK    7  A    between atoms: OH_11  and  C3A_39 
REMARK    8  A    between atoms: C1F_13  and  C1G_24 
REMARK    9  A    between atoms: C1H_18  and  C1G_24 
REMARK   10  A    between atoms: C3C_30  and  C3B_40 
REMARK   11  A    between atoms: C3A_39  and  C3B_40 
ROOT
HETATM    1  CG  570 D 200      48.439 -37.221  17.185  1.00 34.93    -0.056 A 
HETATM    2  CD1 570 D 200      49.013 -35.973  16.775  1.00 36.13     0.010 A 
HETATM    3  CD2 570 D 200      47.860 -37.351  18.491  1.00 35.34     0.010 A 
HETATM    4  CE1 570 D 200      49.014 -34.867  17.647  1.00 35.68     0.037 A 
HETATM    5  CE2 570 D 200      47.856 -36.247  19.373  1.00 34.88     0.037 A 
HETATM    6  CZ  570 D 200      48.443 -34.968  18.955  1.00 35.98     0.068 A 
ENDROOT
BRANCH   1   7
HETATM    7  CB  570 D 200      48.463 -38.394  16.199  1.00 34.81     0.074 C 
BRANCH   7   8
HETATM    8  CA  570 D 200      47.132 -38.602  15.411  1.00 35.38     0.187 C 
BRANCH   8   9
HETATM    9  N   570 D 200      47.248 -39.634  14.315  1.00 36.24    -0.375 N 
ATOM     10  HN  570 D 200      46.520 -39.553  13.605  1.00  0.00     0.160 HD
BRANCH   9  11
HETATM   11  C1A 570 D 200      48.187 -40.724  14.061  1.00 37.40     0.043 A 
HETATM   12  C1F 570 D 200      48.491 -41.717  15.098  1.00 39.24     0.041 A 
HETATM   13  C1E 570 D 200      49.430 -42.760  14.755  1.00 39.11     0.018 A 
HETATM   14  C1D 570 D 200      50.035 -42.822  13.478  1.00 38.73     0.001 A 
HETATM   15  C1C 570 D 200      49.733 -41.860  12.498  1.00 38.13     0.002 A 
HETATM   16  C1B 570 D 200      48.830 -40.832  12.776  1.00 36.97     0.030 A 
BRANCH  12  17
HETATM   17  C1G 570 D 200      47.884 -41.767  16.563  1.00 41.38     0.194 C 
HETATM   18  O1G 570 D 200      47.996 -40.733  17.253  1.00 42.16    -0.287 OA
BRANCH  17  19
HETATM   19  C1H 570 D 200      47.109 -42.866  17.273  1.00 42.73     0.015 A 
HETATM   20  C1I 570 D 200      46.727 -44.057  16.547  1.00 44.25     0.015 A 
HETATM   21  C1J 570 D 200      46.003 -45.099  17.195  1.00 44.58     0.001 A 
HETATM   22  C1K 570 D 200      45.651 -44.965  18.570  1.00 44.26     0.000 A 
HETATM   23  C1L 570 D 200      46.022 -43.794  19.292  1.00 44.32     0.001 A 
HETATM   24  C1M 570 D 200      46.742 -42.757  18.651  1.00 43.55     0.015 A 
ENDBRANCH  17  19
ENDBRANCH  12  17
ENDBRANCH   9  11
ENDBRANCH   8   9
BRANCH   8  25
HETATM   25  C   570 D 200      46.620 -37.292  14.881  1.00 34.52     0.197 C 
HETATM   26  O2  570 D 200      46.158 -36.479  15.718  1.00 34.47    -0.646 OA
HETATM   27  O1  570 D 200      46.610 -37.091  13.623  1.00 33.12    -0.646 OA
ENDBRANCH   8  25
ENDBRANCH   7   8
ENDBRANCH   1   7
BRANCH   6  28
HETATM   28  OH  570 D 200      48.506 -33.775  19.736  1.00 36.39    -0.351 OA
BRANCH  28  29
HETATM   29  C3A 570 D 200      48.882 -32.517  19.124  1.00 37.03     0.181 C 
BRANCH  29  30
HETATM   30  C3B 570 D 200      50.420 -32.456  19.059  1.00 36.82     0.086 C 
BRANCH  30  31
HETATM   31  C3C 570 D 200      51.121 -33.217  20.235  1.00 37.38     0.043 A 
HETATM   32  N3H 570 D 200      52.376 -33.766  20.079  1.00 37.12    -0.337 N 
HETATM   33  C3G 570 D 200      52.721 -34.380  21.306  1.00 38.63     0.158 A 
ATOM     34  H3H 570 D 200      52.949 -33.735  19.235  1.00  0.00     0.168 HD
HETATM   35  O3F 570 D 200      51.636 -34.151  22.144  1.00 39.12    -0.296 OA
HETATM   36  C3I 570 D 200      53.904 -35.065  21.580  1.00 38.84     0.015 A 
HETATM   37  C3D 570 D 200      50.603 -33.450  21.559  1.00 38.13     0.074 A 
HETATM   38  C3E 570 D 200      49.260 -33.030  22.168  1.00 38.01     0.079 C 
HETATM   39  C3N 570 D 200      54.947 -35.234  20.596  1.00 39.01     0.016 A 
HETATM   40  C3J 570 D 200      54.087 -35.628  22.887  1.00 40.05     0.016 A 
HETATM   41  C3M 570 D 200      56.130 -35.945  20.927  1.00 39.51     0.001 A 
HETATM   42  C3L 570 D 200      56.291 -36.494  22.226  1.00 39.34     0.000 A 
HETATM   43  C3K 570 D 200      55.273 -36.335  23.206  1.00 39.52     0.001 A 
ENDBRANCH  30  31
ENDBRANCH  29  30
ENDBRANCH  28  29
ENDBRANCH   6  28
TORSDOF 11
