REMARK  11 active torsions:
REMARK  status: ('A' for Active; 'I' for Inactive)
REMARK    1  A    between atoms: N_1  and  CA_3 
REMARK    2  A    between atoms: N_1  and  C1A_12 
REMARK    3  A    between atoms: CA_3  and  CB_4 
REMARK    4  A    between atoms: CA_3  and  C_43 
REMARK    5  A    between atoms: CB_4  and  CG_5 
REMARK    6  A    between atoms: CZ_10  and  OH_11 
REMARK    7  A    between atoms: OH_11  and  C3A_39 
REMARK    8  A    between atoms: C1F_13  and  C1G_24 
REMARK    9  A    between atoms: C1H_18  and  C1G_24 
REMARK   10  A    between atoms: C3C_30  and  C3B_40 
REMARK   11  A    between atoms: C3A_39  and  C3B_40 
ROOT
HETATM    1  CG  570 D 200      47.213 -37.005  17.395  1.00 34.93    -0.056 A 
HETATM    2  CD1 570 D 200      46.747 -35.820  18.053  1.00 36.13     0.010 A 
HETATM    3  CD2 570 D 200      48.578 -37.417  17.541  1.00 35.34     0.010 A 
HETATM    4  CE1 570 D 200      47.621 -35.053  18.847  1.00 35.68     0.037 A 
HETATM    5  CE2 570 D 200      49.464 -36.655  18.335  1.00 34.88     0.037 A 
HETATM    6  CZ  570 D 200      48.989 -35.441  19.011  1.00 35.98     0.068 A 
ENDROOT
BRANCH   1   7
HETATM    7  CB  570 D 200      46.222 -37.805  16.542  1.00 34.81     0.074 C 
BRANCH   7   8
HETATM    8  CA  570 D 200      46.649 -37.980  15.051  1.00 35.38     0.187 C 
BRANCH   8   9
HETATM    9  N   570 D 200      47.800 -38.942  14.875  1.00 36.24    -0.375 N 
ATOM     10  HN  570 D 200      48.688 -38.579  15.220  1.00  0.00     0.160 HD
BRANCH   9  11
HETATM   11  C1A 570 D 200      47.903 -40.286  14.310  1.00 37.40     0.043 A 
HETATM   12  C1F 570 D 200      47.903 -41.471  15.175  1.00 39.24     0.041 A 
HETATM   13  C1E 570 D 200      48.007 -42.758  14.527  1.00 39.11     0.018 A 
HETATM   14  C1D 570 D 200      48.108 -42.875  13.121  1.00 38.73     0.001 A 
HETATM   15  C1C 570 D 200      48.108 -41.727  12.308  1.00 38.13     0.002 A 
HETATM   16  C1B 570 D 200      48.008 -40.458  12.883  1.00 36.97     0.030 A 
BRANCH  12  17
HETATM   17  C1G 570 D 200      47.794 -41.484  16.758  1.00 41.38     0.194 C 
HETATM   18  O1G 570 D 200      47.798 -40.376  17.331  1.00 42.16    -0.287 OA
BRANCH  17  19
HETATM   19  C1H 570 D 200      47.612 -42.645  17.724  1.00 42.73     0.015 A 
HETATM   20  C1I 570 D 200      48.053 -43.969  17.345  1.00 44.25     0.015 A 
HETATM   21  C1J 570 D 200      47.893 -45.069  18.237  1.00 44.58     0.001 A 
HETATM   22  C1K 570 D 200      47.295 -44.860  19.514  1.00 44.26     0.000 A 
HETATM   23  C1L 570 D 200      46.857 -43.560  19.895  1.00 44.32     0.001 A 
HETATM   24  C1M 570 D 200      47.014 -42.465  19.010  1.00 43.55     0.015 A 
ENDBRANCH  17  19
ENDBRANCH  12  17
ENDBRANCH   9  11
ENDBRANCH   8   9
BRANCH   8  25
HETATM   25  C   570 D 200      46.946 -36.647  14.424  1.00 34.52     0.197 C 
HETATM   26  O2  570 D 200      47.491 -35.782  15.152  1.00 34.47    -0.646 OA
HETATM   27  O1  570 D 200      46.580 -36.428  13.224  1.00 33.12    -0.646 OA
ENDBRANCH   8  25
ENDBRANCH   7   8
ENDBRANCH   1   7
BRANCH   6  28
HETATM   28  OH  570 D 200      49.766 -34.579  19.842  1.00 36.39    -0.351 OA
BRANCH  28  29
HETATM   29  C3A 570 D 200      49.180 -33.971  21.018  1.00 37.03     0.181 C 
BRANCH  29  30
HETATM   30  C3B 570 D 200      50.297 -33.239  21.787  1.00 36.82     0.086 C 
BRANCH  30  31
HETATM   31  C3C 570 D 200      51.737 -33.620  21.300  1.00 37.38     0.043 A 
HETATM   32  N3H 570 D 200      52.670 -34.133  22.175  1.00 37.12    -0.337 N 
HETATM   33  C3G 570 D 200      53.855 -34.364  21.436  1.00 38.63     0.158 A 
ATOM     34  H3H 570 D 200      52.533 -34.312  23.170  1.00  0.00     0.168 HD
HETATM   35  O3F 570 D 200      53.552 -33.978  20.136  1.00 39.12    -0.296 OA
HETATM   36  C3I 570 D 200      55.053 -34.869  21.939  1.00 38.84     0.015 A 
HETATM   37  C3D 570 D 200      52.271 -33.499  19.968  1.00 38.13     0.074 A 
HETATM   38  C3E 570 D 200      51.599 -32.977  18.691  1.00 38.01     0.079 C 
HETATM   39  C3N 570 D 200      55.224 -35.219  23.329  1.00 39.01     0.016 A 
HETATM   40  C3J 570 D 200      56.159 -35.041  21.041  1.00 40.05     0.016 A 
HETATM   41  C3M 570 D 200      56.468 -35.725  23.789  1.00 39.51     0.001 A 
HETATM   42  C3L 570 D 200      57.549 -35.887  22.883  1.00 39.34     0.000 A 
HETATM   43  C3K 570 D 200      57.396 -35.548  21.511  1.00 39.52     0.001 A 
ENDBRANCH  30  31
ENDBRANCH  29  30
ENDBRANCH  28  29
ENDBRANCH   6  28
TORSDOF 11
