REMARK  11 active torsions:
REMARK  status: ('A' for Active; 'I' for Inactive)
REMARK    1  A    between atoms: N_1  and  CA_3 
REMARK    2  A    between atoms: N_1  and  C1A_12 
REMARK    3  A    between atoms: CA_3  and  CB_4 
REMARK    4  A    between atoms: CA_3  and  C_43 
REMARK    5  A    between atoms: CB_4  and  CG_5 
REMARK    6  A    between atoms: CZ_10  and  OH_11 
REMARK    7  A    between atoms: OH_11  and  C3A_39 
REMARK    8  A    between atoms: C1F_13  and  C1G_24 
REMARK    9  A    between atoms: C1H_18  and  C1G_24 
REMARK   10  A    between atoms: C3C_30  and  C3B_40 
REMARK   11  A    between atoms: C3A_39  and  C3B_40 
ROOT
HETATM    1  CG  570 D 200      48.643 -35.808  19.500  1.00 34.93    -0.056 A 
HETATM    2  CD1 570 D 200      47.316 -35.784  18.959  1.00 36.13     0.010 A 
HETATM    3  CD2 570 D 200      49.736 -36.278  18.700  1.00 35.34     0.010 A 
HETATM    4  CE1 570 D 200      47.074 -36.216  17.641  1.00 35.68     0.037 A 
HETATM    5  CE2 570 D 200      49.504 -36.715  17.376  1.00 34.88     0.037 A 
HETATM    6  CZ  570 D 200      48.146 -36.690  16.820  1.00 35.98     0.068 A 
ENDROOT
BRANCH   1   7
HETATM    7  CB  570 D 200      48.854 -35.326  20.940  1.00 34.81     0.074 C 
BRANCH   7   8
HETATM    8  CA  570 D 200      49.200 -33.810  21.068  1.00 35.38     0.187 C 
BRANCH   8   9
HETATM    9  N   570 D 200      49.356 -33.123  19.732  1.00 36.24    -0.375 N 
ATOM     10  HN  570 D 200      48.986 -32.173  19.719  1.00  0.00     0.160 HD
BRANCH   9  11
HETATM   11  C1A 570 D 200      49.927 -33.539  18.453  1.00 37.40     0.043 A 
HETATM   12  C1F 570 D 200      51.367 -33.788  18.313  1.00 39.24     0.041 A 
HETATM   13  C1E 570 D 200      51.840 -34.198  17.012  1.00 39.11     0.018 A 
HETATM   14  C1D 570 D 200      50.959 -34.352  15.916  1.00 38.73     0.001 A 
HETATM   15  C1C 570 D 200      49.582 -34.107  16.069  1.00 38.13     0.002 A 
HETATM   16  C1B 570 D 200      49.071 -33.711  17.307  1.00 36.97     0.030 A 
BRANCH  12  17
HETATM   17  C1G 570 D 200      52.462 -33.657  19.454  1.00 41.38     0.194 C 
HETATM   18  O1G 570 D 200      52.826 -32.501  19.754  1.00 42.16    -0.287 OA
BRANCH  17  19
HETATM   19  C1H 570 D 200      53.117 -34.723  20.319  1.00 42.73     0.015 A 
HETATM   20  C1I 570 D 200      54.557 -34.847  20.337  1.00 44.25     0.015 A 
HETATM   21  C1J 570 D 200      55.189 -35.838  21.143  1.00 44.58     0.001 A 
HETATM   22  C1K 570 D 200      54.393 -36.713  21.938  1.00 44.26     0.000 A 
HETATM   23  C1L 570 D 200      52.974 -36.599  21.926  1.00 44.32     0.001 A 
HETATM   24  C1M 570 D 200      52.343 -35.615  21.126  1.00 43.55     0.015 A 
ENDBRANCH  17  19
ENDBRANCH  12  17
ENDBRANCH   9  11
ENDBRANCH   8   9
BRANCH   8  25
HETATM   25  C   570 D 200      50.415 -33.614  21.931  1.00 34.52     0.197 C 
HETATM   26  O2  570 D 200      51.199 -32.687  21.613  1.00 34.47    -0.646 OA
HETATM   27  O1  570 D 200      50.634 -34.423  22.891  1.00 33.12    -0.646 OA
ENDBRANCH   8  25
ENDBRANCH   7   8
ENDBRANCH   1   7
BRANCH   6  28
HETATM   28  OH  570 D 200      47.766 -37.096  15.505  1.00 36.39    -0.351 OA
BRANCH  28  29
HETATM   29  C3A 570 D 200      46.868 -38.217  15.316  1.00 37.03     0.181 C 
BRANCH  29  30
HETATM   30  C3B 570 D 200      47.330 -38.996  14.069  1.00 36.82     0.086 C 
BRANCH  30  31
HETATM   31  C3C 570 D 200      47.890 -40.422  14.402  1.00 37.38     0.043 A 
HETATM   32  N3H 570 D 200      47.675 -41.000  15.635  1.00 37.12    -0.337 N 
HETATM   33  C3G 570 D 200      48.305 -42.267  15.619  1.00 38.63     0.158 A 
ATOM     34  H3H 570 D 200      47.158 -40.591  16.413  1.00  0.00     0.168 HD
HETATM   35  O3F 570 D 200      48.863 -42.379  14.351  1.00 39.12    -0.296 OA
HETATM   36  C3I 570 D 200      48.342 -43.181  16.672  1.00 38.84     0.015 A 
HETATM   37  C3D 570 D 200      48.662 -41.281  13.542  1.00 38.13     0.074 A 
HETATM   38  C3E 570 D 200      49.138 -41.048  12.102  1.00 38.01     0.079 C 
HETATM   39  C3N 570 D 200      47.720 -42.919  17.948  1.00 39.01     0.016 A 
HETATM   40  C3J 570 D 200      49.030 -44.425  16.478  1.00 40.05     0.016 A 
HETATM   41  C3M 570 D 200      47.792 -43.883  18.986  1.00 39.51     0.001 A 
HETATM   42  C3L 570 D 200      48.478 -45.108  18.775  1.00 39.34     0.000 A 
HETATM   43  C3K 570 D 200      49.094 -45.381  17.523  1.00 39.52     0.001 A 
ENDBRANCH  30  31
ENDBRANCH  29  30
ENDBRANCH  28  29
ENDBRANCH   6  28
TORSDOF 11
