TOL.pdb
  rDOCK(R)          3D
libRbt.so/2013.1/901 2013/11/27
 25 26  0  0  0  0  0  0  0  0999 V2000
   21.8629   17.3227   74.7747 C   0  0  0  0  0  0
   21.4372   16.2561   74.0521 F   0  0  0  0  0  0
   20.8997   18.2769   74.6752 F   0  0  0  0  0  0
   21.9269   16.9486   76.0803 F   0  0  0  0  0  0
   23.2357   17.8306   74.2832 C   0  0  0  0  0  0
   24.0341   17.1501   73.3274 C   0  0  0  0  0  0
   23.6063   16.0135   72.8084 O   0  0  0  0  0  0
   24.0834   14.8737   73.5042 C   0  0  0  0  0  0
   25.2785   17.6995   72.9482 C   0  0  0  0  0  0
   25.7295   18.9027   73.5026 C   0  0  0  0  0  0
   24.9408   19.5799   74.4536 C   0  0  0  0  0  0
   25.4086   20.7945   75.0076 C   0  0  0  0  0  0
   24.6214   21.4697   75.9547 C   0  0  0  0  0  0
   23.3874   20.9480   76.3496 C   0  0  0  0  0  0
   22.9282   19.7454   75.7977 C   0  0  0  0  0  0
   23.6974   19.0497   74.8465 C   0  0  0  0  0  0
   26.7283   21.4303   74.6385 C   0  0  0  0  0  0
   26.7388   22.9120   73.7779 S   0  0  0  0  0  0
   27.8680   20.8385   74.9995 N   0  0  0  0  0  0
   27.8311   19.6353   75.8233 C   0  0  0  0  0  0
   29.1670   21.3752   74.6065 C   0  0  0  0  0  0
   29.6499   22.4616   75.5827 C   0  0  0  0  0  0
   29.3494   22.4578   76.7474 O   0  0  0  0  0  0
   30.4324   23.4059   75.0484 O   0  0  0  0  0  0
   30.6501   23.3739   74.1376 H   0  0  0  0  0  0
  1  2  1  0  0  0
  1  3  1  0  0  0
  1  4  1  0  0  0
  1  5  1  0  0  0
  5  6  2  0  0  0
  5 16  1  0  0  0
  6  7  1  0  0  0
  6  9  1  0  0  0
  7  8  1  0  0  0
  9 10  2  0  0  0
 10 11  1  0  0  0
 11 12  2  0  0  0
 11 16  1  0  0  0
 12 13  1  0  0  0
 12 17  1  0  0  0
 13 14  2  0  0  0
 14 15  1  0  0  0
 15 16  2  0  0  0
 17 18  2  0  0  0
 17 19  1  0  0  0
 19 20  1  0  0  0
 19 21  1  0  0  0
 21 22  1  0  0  0
 22 23  2  0  0  0
 22 24  1  0  0  0
 24 25  1  0  0  0
M  END
>  <CHROM.0>
1.48282135,52.68874493,-99.06913523,1.04319762,171.53089616,70.56755243,-118.35603421
92.65761095,-60.73660526,179.06403480,-61.54190337,59.84834786,-61.41326028
-60.50081437,-92.27472712

>  <CHROM.1>
-8.40752827,-93.66474124,112.30768980,85.17619262,30.01463022,-0.02954090
25.20709420,19.56554377,74.69620199,2.45934415,-0.24593600,-2.70286409

>  <FORMUL>
      TOL    C16 H14 F3 N1 O3 S1

>  <HET>
 TOL  A 320      24

>  <HETNAM>
     TOL TOLRESTAT

>  <Name>
TOL.pdb

>  <RI>
0

>  <Rbt.Current_Directory>
/home/malgorzata/Desktop/rDOCK_IFD/Wyniki/1a_aldose_reductase/IFD

>  <Rbt.Executable>
rbdock ($Id: //depot/dev/client3/rdock/2013.1/src/exe/rbdock.cxx#4 $)

>  <Rbt.Library>
libRbt.so (2013.1, Build901 2013/11/27)

>  <Rbt.Parameter_File>
/home/malgorzata/Desktop/rDock_2013.1_src/data/scripts/hard_docking.prm

>  <Rbt.Receptor>
cavity.prm

>  <SCORE>
-12.9739

>  <SCORE.INTER>
-1.90766

>  <SCORE.INTER.CONST>
1

>  <SCORE.INTER.POLAR>
-0.288789

>  <SCORE.INTER.REPUL>
0

>  <SCORE.INTER.ROT>
5

>  <SCORE.INTER.VDW>
-11.3258

>  <SCORE.INTER.norm>
-0.0794858

>  <SCORE.INTRA>
-5.19868

>  <SCORE.INTRA.DIHEDRAL>
3.31042

>  <SCORE.INTRA.DIHEDRAL.0>
16.9783

>  <SCORE.INTRA.POLAR>
0

>  <SCORE.INTRA.POLAR.0>
0

>  <SCORE.INTRA.REPUL>
0

>  <SCORE.INTRA.REPUL.0>
0

>  <SCORE.INTRA.VDW>
-6.85389

>  <SCORE.INTRA.VDW.0>
4.87734

>  <SCORE.INTRA.norm>
-0.216612

>  <SCORE.RESTR>
1.44628

>  <SCORE.RESTR.CAVITY>
1.44628

>  <SCORE.RESTR.norm>
0.0602616

>  <SCORE.SYSTEM>
-7.31381

>  <SCORE.SYSTEM.CONST>
0

>  <SCORE.SYSTEM.DIHEDRAL>
2.83256

>  <SCORE.SYSTEM.POLAR>
-1.02496

>  <SCORE.SYSTEM.VDW>
-5.24521

>  <SCORE.SYSTEM.norm>
-0.304742

>  <SCORE.heavy>
24

>  <SCORE.norm>
-0.540578

$$$$
TOL.pdb
  rDOCK(R)          3D
libRbt.so/2013.1/901 2013/11/27
 25 26  0  0  0  0  0  0  0  0999 V2000
   23.3127   16.5631   76.6160 C   0  0  0  0  0  0
   22.6087   16.2384   77.7295 F   0  0  0  0  0  0
   24.0668   15.4784   76.2951 F   0  0  0  0  0  0
   22.4294   16.7552   75.6002 F   0  0  0  0  0  0
   24.1752   17.8246   76.8367 C   0  0  0  0  0  0
   24.2933   18.4930   78.0830 C   0  0  0  0  0  0
   23.6402   18.0345   79.1354 O   0  0  0  0  0  0
   24.4434   17.2188   79.9724 C   0  0  0  0  0  0
   25.1071   19.6433   78.1771 C   0  0  0  0  0  0
   25.7953   20.1276   77.0589 C   0  0  0  0  0  0
   25.6786   19.4682   75.8194 C   0  0  0  0  0  0
   26.3783   19.9686   74.6964 C   0  0  0  0  0  0
   26.2625   19.3101   73.4612 C   0  0  0  0  0  0
   25.4628   18.1715   73.3392 C   0  0  0  0  0  0
   24.7726   17.6794   74.4541 C   0  0  0  0  0  0
   24.8722   18.3202   75.7030 C   0  0  0  0  0  0
   27.2642   21.1914   74.7379 C   0  0  0  0  0  0
   26.7101   22.6578   74.0458 S   0  0  0  0  0  0
   28.4597   21.1187   75.3251 N   0  0  0  0  0  0
   28.8626   19.8899   76.0000 C   0  0  0  0  0  0
   29.3806   22.2509   75.3294 C   0  0  0  0  0  0
   29.1393   23.1728   76.5370 C   0  0  0  0  0  0
   29.6785   22.9959   77.5976 O   0  0  0  0  0  0
   28.2949   24.1881   76.3237 O   0  0  0  0  0  0
   28.1124   24.7979   77.0113 H   0  0  0  0  0  0
  1  2  1  0  0  0
  1  3  1  0  0  0
  1  4  1  0  0  0
  1  5  1  0  0  0
  5  6  2  0  0  0
  5 16  1  0  0  0
  6  7  1  0  0  0
  6  9  1  0  0  0
  7  8  1  0  0  0
  9 10  2  0  0  0
 10 11  1  0  0  0
 11 12  2  0  0  0
 11 16  1  0  0  0
 12 13  1  0  0  0
 12 17  1  0  0  0
 13 14  2  0  0  0
 14 15  1  0  0  0
 15 16  2  0  0  0
 17 18  2  0  0  0
 17 19  1  0  0  0
 19 20  1  0  0  0
 19 21  1  0  0  0
 21 22  1  0  0  0
 22 23  2  0  0  0
 22 24  1  0  0  0
 24 25  1  0  0  0
M  END
>  <CHROM.0>
3.68936199,52.79758775,-104.64332221,-178.19907607,171.15734900,71.01062131
155.80513056,160.93267204,-60.73660526,61.57637194,-61.54190337,62.81507524
-61.41326028,-60.50081437,-74.61014994

>  <CHROM.1>
4.65442617,97.29257612,-105.25019138,88.49016145,88.16166267,-178.98583002
25.85090150,19.53068010,76.16140930,2.97003342,0.86919073,1.54013493

>  <FORMUL>
      TOL    C16 H14 F3 N1 O3 S1

>  <HET>
 TOL  A 320      24

>  <HETNAM>
     TOL TOLRESTAT

>  <Name>
TOL.pdb

>  <RI>
0

>  <Rbt.Current_Directory>
/home/malgorzata/Desktop/rDOCK_IFD/Wyniki/1a_aldose_reductase/IFD

>  <Rbt.Executable>
rbdock ($Id: //depot/dev/client3/rdock/2013.1/src/exe/rbdock.cxx#4 $)

>  <Rbt.Library>
libRbt.so (2013.1, Build901 2013/11/27)

>  <Rbt.Parameter_File>
/home/malgorzata/Desktop/rDock_2013.1_src/data/scripts/hard_docking.prm

>  <Rbt.Receptor>
cavity.prm

>  <SCORE>
-15.6792

>  <SCORE.INTER>
-2.31268

>  <SCORE.INTER.CONST>
1

>  <SCORE.INTER.POLAR>
-0.772271

>  <SCORE.INTER.REPUL>
0

>  <SCORE.INTER.ROT>
5

>  <SCORE.INTER.VDW>
-10.087

>  <SCORE.INTER.norm>
-0.0963617

>  <SCORE.INTRA>
-5.40342

>  <SCORE.INTRA.DIHEDRAL>
4.14646

>  <SCORE.INTRA.DIHEDRAL.0>
16.9783

>  <SCORE.INTRA.POLAR>
0

>  <SCORE.INTRA.POLAR.0>
0

>  <SCORE.INTRA.REPUL>
0

>  <SCORE.INTRA.REPUL.0>
0

>  <SCORE.INTRA.VDW>
-7.47665

>  <SCORE.INTRA.VDW.0>
4.87734

>  <SCORE.INTRA.norm>
-0.225142

>  <SCORE.RESTR>
0

>  <SCORE.RESTR.CAVITY>
0

>  <SCORE.RESTR.norm>
0

>  <SCORE.SYSTEM>
-7.96305

>  <SCORE.SYSTEM.CONST>
0

>  <SCORE.SYSTEM.DIHEDRAL>
2.98481

>  <SCORE.SYSTEM.POLAR>
-1.09876

>  <SCORE.SYSTEM.VDW>
-5.71965

>  <SCORE.SYSTEM.norm>
-0.331794

>  <SCORE.heavy>
24

>  <SCORE.norm>
-0.653298

$$$$
TOL.pdb
  rDOCK(R)          3D
libRbt.so/2013.1/901 2013/11/27
 25 26  0  0  0  0  0  0  0  0999 V2000
   23.1997   16.5062   77.4660 C   0  0  0  0  0  0
   22.8947   16.3170   78.7744 F   0  0  0  0  0  0
   23.6508   15.3157   76.9893 F   0  0  0  0  0  0
   22.0487   16.7963   76.8028 F   0  0  0  0  0  0
   24.2365   17.6354   77.2817 C   0  0  0  0  0  0
   24.8996   18.2825   78.3567 C   0  0  0  0  0  0
   24.6371   17.9210   79.5995 O   0  0  0  0  0  0
   25.6884   17.1768   80.1927 C   0  0  0  0  0  0
   25.8298   19.3082   78.0792 C   0  0  0  0  0  0
   26.1032   19.6902   76.7609 C   0  0  0  0  0  0
   25.4450   19.0518   75.6912 C   0  0  0  0  0  0
   25.7291   19.4482   74.3633 C   0  0  0  0  0  0
   25.0736   18.8106   73.2973 C   0  0  0  0  0  0
   24.1473   17.7945   73.5430 C   0  0  0  0  0  0
   23.8700   17.4051   74.8594 C   0  0  0  0  0  0
   24.5135   18.0274   75.9452 C   0  0  0  0  0  0
   26.7151   20.5356   74.0064 C   0  0  0  0  0  0
   26.4563   22.1296   74.5795 S   0  0  0  0  0  0
   27.7818   20.2388   73.2624 N   0  0  0  0  0  0
   28.0352   18.8548   72.8776 C   0  0  0  0  0  0
   28.7248   21.2662   72.8320 C   0  0  0  0  0  0
   29.7160   21.6298   73.9509 C   0  0  0  0  0  0
   30.5937   20.8843   74.2983 O   0  0  0  0  0  0
   29.5388   22.8343   74.5050 O   0  0  0  0  0  0
   30.1094   23.1236   75.1895 H   0  0  0  0  0  0
  1  2  1  0  0  0
  1  3  1  0  0  0
  1  4  1  0  0  0
  1  5  1  0  0  0
  5  6  2  0  0  0
  5 16  1  0  0  0
  6  7  1  0  0  0
  6  9  1  0  0  0
  7  8  1  0  0  0
  9 10  2  0  0  0
 10 11  1  0  0  0
 11 12  2  0  0  0
 11 16  1  0  0  0
 12 13  1  0  0  0
 12 17  1  0  0  0
 13 14  2  0  0  0
 14 15  1  0  0  0
 15 16  2  0  0  0
 17 18  2  0  0  0
 17 19  1  0  0  0
 19 20  1  0  0  0
 19 21  1  0  0  0
 21 22  1  0  0  0
 22 23  2  0  0  0
 22 24  1  0  0  0
 24 25  1  0  0  0
M  END
>  <CHROM.0>
-155.43062007,52.85217621,-97.60516924,-177.67196862,58.29967123,72.57218261
-118.19072868,161.07610866,-60.73660526,-179.01438902,-61.54190337,62.95784481
-61.41326028,-60.50081437,-90.06202915

>  <CHROM.1>
6.86257536,106.77959099,-60.52351854,80.09534742,71.72710645,-179.65924748
25.80443977,18.99693523,75.78683550,2.53310407,0.69779636,1.66553253

>  <FORMUL>
      TOL    C16 H14 F3 N1 O3 S1

>  <HET>
 TOL  A 320      24

>  <HETNAM>
     TOL TOLRESTAT

>  <Name>
TOL.pdb

>  <RI>
0

>  <Rbt.Current_Directory>
/home/malgorzata/Desktop/rDOCK_IFD/Wyniki/1a_aldose_reductase/IFD

>  <Rbt.Executable>
rbdock ($Id: //depot/dev/client3/rdock/2013.1/src/exe/rbdock.cxx#4 $)

>  <Rbt.Library>
libRbt.so (2013.1, Build901 2013/11/27)

>  <Rbt.Parameter_File>
/home/malgorzata/Desktop/rDock_2013.1_src/data/scripts/hard_docking.prm

>  <Rbt.Receptor>
cavity.prm

>  <SCORE>
-15.1037

>  <SCORE.INTER>
-1.38667

>  <SCORE.INTER.CONST>
1

>  <SCORE.INTER.POLAR>
-0.632456

>  <SCORE.INTER.REPUL>
0

>  <SCORE.INTER.ROT>
5

>  <SCORE.INTER.VDW>
-9.63632

>  <SCORE.INTER.norm>
-0.057778

>  <SCORE.INTRA>
-5.41874

>  <SCORE.INTRA.DIHEDRAL>
1.69385

>  <SCORE.INTRA.DIHEDRAL.0>
16.9783

>  <SCORE.INTRA.POLAR>
0

>  <SCORE.INTRA.POLAR.0>
0

>  <SCORE.INTRA.REPUL>
0

>  <SCORE.INTRA.REPUL.0>
0

>  <SCORE.INTRA.VDW>
-6.26567

>  <SCORE.INTRA.VDW.0>
4.87734

>  <SCORE.INTRA.norm>
-0.225781

>  <SCORE.RESTR>
0

>  <SCORE.RESTR.CAVITY>
0

>  <SCORE.RESTR.norm>
0

>  <SCORE.SYSTEM>
-8.29829

>  <SCORE.SYSTEM.CONST>
0

>  <SCORE.SYSTEM.DIHEDRAL>
3.59337

>  <SCORE.SYSTEM.POLAR>
-1.66288

>  <SCORE.SYSTEM.REPUL>
0.0507346

>  <SCORE.SYSTEM.VDW>
-4.69485

>  <SCORE.SYSTEM.norm>
-0.345762

>  <SCORE.heavy>
24

>  <SCORE.norm>
-0.629321

$$$$
TOL.pdb
  rDOCK(R)          3D
libRbt.so/2013.1/901 2013/11/27
 25 26  0  0  0  0  0  0  0  0999 V2000
   29.3759   26.8373   79.0969 C   0  0  0  0  0  0
   28.6800   27.8873   78.5928 F   0  0  0  0  0  0
   30.6517   27.2653   79.2903 F   0  0  0  0  0  0
   28.8609   26.5384   80.3193 F   0  0  0  0  0  0
   29.3109   25.6107   78.1612 C   0  0  0  0  0  0
   30.4547   24.9692   77.6187 C   0  0  0  0  0  0
   31.6597   25.4231   77.9121 O   0  0  0  0  0  0
   32.3180   24.6464   78.8991 C   0  0  0  0  0  0
   30.2849   23.8545   76.7686 C   0  0  0  0  0  0
   29.0061   23.3783   76.4580 C   0  0  0  0  0  0
   27.8682   24.0141   76.9927 C   0  0  0  0  0  0
   26.5811   23.5239   76.6699 C   0  0  0  0  0  0
   25.4471   24.1574   77.2042 C   0  0  0  0  0  0
   25.5858   25.2632   78.0461 C   0  0  0  0  0  0
   26.8622   25.7444   78.3633 C   0  0  0  0  0  0
   28.0144   25.1273   77.8417 C   0  0  0  0  0  0
   26.3387   22.3354   75.7696 C   0  0  0  0  0  0
   27.0383   22.3060   74.2056 S   0  0  0  0  0  0
   25.5959   21.3179   76.2080 N   0  0  0  0  0  0
   25.1015   21.3194   77.5804 C   0  0  0  0  0  0
   25.2744   20.1802   75.3522 C   0  0  0  0  0  0
   24.2402   20.5548   74.2768 C   0  0  0  0  0  0
   23.7560   21.6537   74.2068 O   0  0  0  0  0  0
   23.9225   19.5767   73.4213 O   0  0  0  0  0  0
   23.3608   19.7555   72.6929 H   0  0  0  0  0  0
  1  2  1  0  0  0
  1  3  1  0  0  0
  1  4  1  0  0  0
  1  5  1  0  0  0
  5  6  2  0  0  0
  5 16  1  0  0  0
  6  7  1  0  0  0
  6  9  1  0  0  0
  7  8  1  0  0  0
  9 10  2  0  0  0
 10 11  1  0  0  0
 11 12  2  0  0  0
 11 16  1  0  0  0
 12 13  1  0  0  0
 12 17  1  0  0  0
 13 14  2  0  0  0
 14 15  1  0  0  0
 15 16  2  0  0  0
 17 18  2  0  0  0
 17 19  1  0  0  0
 19 20  1  0  0  0
 19 21  1  0  0  0
 21 22  1  0  0  0
 22 23  2  0  0  0
 22 24  1  0  0  0
 24 25  1  0  0  0
M  END
>  <CHROM.0>
-156.33199504,168.72914770,-97.66130111,0.02495296,-67.90584502,177.01596184
-84.68205628,119.98349443,-60.73660526,65.09311252,-61.54190337,-171.92739353
-61.41326028,-60.50081437,-82.52909995

>  <CHROM.1>
122.61423732,101.72741747,-53.57564162,-72.78477881,-1.72784118,-174.30484682
27.60975565,23.89126900,76.96560695,0.91163946,0.04452424,0.69688583

>  <FORMUL>
      TOL    C16 H14 F3 N1 O3 S1

>  <HET>
 TOL  A 320      24

>  <HETNAM>
     TOL TOLRESTAT

>  <Name>
TOL.pdb

>  <RI>
0

>  <Rbt.Current_Directory>
/home/malgorzata/Desktop/rDOCK_IFD/Wyniki/1a_aldose_reductase/IFD

>  <Rbt.Executable>
rbdock ($Id: //depot/dev/client3/rdock/2013.1/src/exe/rbdock.cxx#4 $)

>  <Rbt.Library>
libRbt.so (2013.1, Build901 2013/11/27)

>  <Rbt.Parameter_File>
/home/malgorzata/Desktop/rDock_2013.1_src/data/scripts/hard_docking.prm

>  <Rbt.Receptor>
cavity.prm

>  <SCORE>
-17.0103

>  <SCORE.INTER>
-6.69717

>  <SCORE.INTER.CONST>
1

>  <SCORE.INTER.POLAR>
-0.957758

>  <SCORE.INTER.REPUL>
0

>  <SCORE.INTER.ROT>
5

>  <SCORE.INTER.VDW>
-13.8408

>  <SCORE.INTER.norm>
-0.279049

>  <SCORE.INTRA>
-5.13699

>  <SCORE.INTRA.DIHEDRAL>
0.618436

>  <SCORE.INTRA.DIHEDRAL.0>
16.9783

>  <SCORE.INTRA.POLAR>
0

>  <SCORE.INTRA.POLAR.0>
0

>  <SCORE.INTRA.REPUL>
0

>  <SCORE.INTRA.REPUL.0>
0

>  <SCORE.INTRA.VDW>
-5.44621

>  <SCORE.INTRA.VDW.0>
4.87734

>  <SCORE.INTRA.norm>
-0.214041

>  <SCORE.RESTR>
0

>  <SCORE.RESTR.CAVITY>
0

>  <SCORE.RESTR.norm>
0

>  <SCORE.SYSTEM>
-5.1761

>  <SCORE.SYSTEM.CONST>
0

>  <SCORE.SYSTEM.DIHEDRAL>
3.87745

>  <SCORE.SYSTEM.POLAR>
-0.991262

>  <SCORE.SYSTEM.REPUL>
0.209019

>  <SCORE.SYSTEM.VDW>
-4.78963

>  <SCORE.SYSTEM.norm>
-0.215671

>  <SCORE.heavy>
24

>  <SCORE.norm>
-0.708761

$$$$
TOL.pdb
  rDOCK(R)          3D
libRbt.so/2013.1/901 2013/11/27
 25 26  0  0  0  0  0  0  0  0999 V2000
   27.3747   24.1542   76.1953 C   0  0  0  0  0  0
   26.3279   24.6509   75.4894 F   0  0  0  0  0  0
   27.0687   22.8656   76.5018 F   0  0  0  0  0  0
   28.4601   24.1275   75.3767 F   0  0  0  0  0  0
   27.6613   24.9982   77.4562 C   0  0  0  0  0  0
   26.7876   26.0010   77.9513 C   0  0  0  0  0  0
   25.6550   26.2514   77.3198 O   0  0  0  0  0  0
   24.5192   25.7403   77.9978 C   0  0  0  0  0  0
   27.1464   26.7195   79.1129 C   0  0  0  0  0  0
   28.3488   26.4529   79.7776 C   0  0  0  0  0  0
   29.2198   25.4599   79.2877 C   0  0  0  0  0  0
   30.4328   25.2011   79.9679 C   0  0  0  0  0  0
   31.3002   24.2102   79.4797 C   0  0  0  0  0  0
   30.9714   23.4857   78.3316 C   0  0  0  0  0  0
   29.7690   23.7451   77.6621 C   0  0  0  0  0  0
   28.8823   24.7321   78.1309 C   0  0  0  0  0  0
   30.8672   25.9349   81.2147 C   0  0  0  0  0  0
   29.9117   25.8263   82.6329 S   0  0  0  0  0  0
   31.9958   26.6459   81.2008 N   0  0  0  0  0  0
   32.8452   26.6349   80.0149 C   0  0  0  0  0  0
   32.4216   27.4290   82.3564 C   0  0  0  0  0  0
   32.5500   28.9228   82.0122 C   0  0  0  0  0  0
   31.7386   29.4979   81.3356 O   0  0  0  0  0  0
   33.6218   29.5390   82.5231 O   0  0  0  0  0  0
   33.7619   30.4504   82.3566 H   0  0  0  0  0  0
  1  2  1  0  0  0
  1  3  1  0  0  0
  1  4  1  0  0  0
  1  5  1  0  0  0
  5  6  2  0  0  0
  5 16  1  0  0  0
  6  7  1  0  0  0
  6  9  1  0  0  0
  7  8  1  0  0  0
  9 10  2  0  0  0
 10 11  1  0  0  0
 11 12  2  0  0  0
 11 16  1  0  0  0
 12 13  1  0  0  0
 12 17  1  0  0  0
 13 14  2  0  0  0
 14 15  1  0  0  0
 15 16  2  0  0  0
 17 18  2  0  0  0
 17 19  1  0  0  0
 19 20  1  0  0  0
 19 21  1  0  0  0
 21 22  1  0  0  0
 22 23  2  0  0  0
 22 24  1  0  0  0
 24 25  1  0  0  0
M  END
>  <CHROM.0>
-155.86788983,-62.43094439,-96.38305272,-178.93131164,179.46310460,-62.63895378
154.13972997,172.30608183,-60.73660526,61.56701048,-61.54190337,-69.92417837
-61.41326028,-60.50081437,164.61829402

>  <CHROM.1>
11.42080425,105.38099835,61.87711439,-120.13487801,42.22236965,-179.78037285
29.37864874,25.79908313,79.21304840,-2.32531419,-0.30118067,0.74947928

>  <FORMUL>
      TOL    C16 H14 F3 N1 O3 S1

>  <HET>
 TOL  A 320      24

>  <HETNAM>
     TOL TOLRESTAT

>  <Name>
TOL.pdb

>  <RI>
0

>  <Rbt.Current_Directory>
/home/malgorzata/Desktop/rDOCK_IFD/Wyniki/1a_aldose_reductase/IFD

>  <Rbt.Executable>
rbdock ($Id: //depot/dev/client3/rdock/2013.1/src/exe/rbdock.cxx#4 $)

>  <Rbt.Library>
libRbt.so (2013.1, Build901 2013/11/27)

>  <Rbt.Parameter_File>
/home/malgorzata/Desktop/rDock_2013.1_src/data/scripts/hard_docking.prm

>  <Rbt.Receptor>
cavity.prm

>  <SCORE>
-16.1428

>  <SCORE.INTER>
-7.28833

>  <SCORE.INTER.CONST>
1

>  <SCORE.INTER.POLAR>
-0.632456

>  <SCORE.INTER.REPUL>
0

>  <SCORE.INTER.ROT>
5

>  <SCORE.INTER.VDW>
-15.538

>  <SCORE.INTER.norm>
-0.30368

>  <SCORE.INTRA>
-4.03791

>  <SCORE.INTRA.DIHEDRAL>
1.83016

>  <SCORE.INTRA.DIHEDRAL.0>
16.9783

>  <SCORE.INTRA.POLAR>
0

>  <SCORE.INTRA.POLAR.0>
0

>  <SCORE.INTRA.REPUL>
0

>  <SCORE.INTRA.REPUL.0>
0

>  <SCORE.INTRA.VDW>
-4.95299

>  <SCORE.INTRA.VDW.0>
4.87734

>  <SCORE.INTRA.norm>
-0.168246

>  <SCORE.RESTR>
0.515976

>  <SCORE.RESTR.CAVITY>
0.515976

>  <SCORE.RESTR.norm>
0.021499

>  <SCORE.SYSTEM>
-5.33256

>  <SCORE.SYSTEM.CONST>
0

>  <SCORE.SYSTEM.DIHEDRAL>
3.06157

>  <SCORE.SYSTEM.POLAR>
-0.452611

>  <SCORE.SYSTEM.REPUL>
0.0507346

>  <SCORE.SYSTEM.VDW>
-5.57814

>  <SCORE.SYSTEM.norm>
-0.22219

>  <SCORE.heavy>
24

>  <SCORE.norm>
-0.672618

$$$$
TOL.pdb
  rDOCK(R)          3D
libRbt.so/2013.1/901 2013/11/27
 25 26  0  0  0  0  0  0  0  0999 V2000
   28.7630   23.1305   76.2966 C   0  0  0  0  0  0
   29.0675   23.8168   75.1665 F   0  0  0  0  0  0
   27.4243   23.2645   76.4915 F   0  0  0  0  0  0
   29.0075   21.8126   76.0679 F   0  0  0  0  0  0
   29.5790   23.6363   77.5059 C   0  0  0  0  0  0
   30.6362   22.9052   78.1073 C   0  0  0  0  0  0
   30.9666   21.7196   77.6282 O   0  0  0  0  0  0
   32.0772   21.7688   76.7478 C   0  0  0  0  0  0
   31.3177   23.4576   79.2140 C   0  0  0  0  0  0
   30.9627   24.7130   79.7203 C   0  0  0  0  0  0
   29.9121   25.4407   79.1275 C   0  0  0  0  0  0
   29.5621   26.7080   79.6497 C   0  0  0  0  0  0
   28.5154   27.4334   79.0575 C   0  0  0  0  0  0
   27.8229   26.9101   77.9632 C   0  0  0  0  0  0
   28.1736   25.6554   77.4493 C   0  0  0  0  0  0
   29.2188   24.9086   78.0239 C   0  0  0  0  0  0
   30.2563   27.3494   80.8280 C   0  0  0  0  0  0
   31.1804   28.7725   80.5896 S   0  0  0  0  0  0
   30.1296   26.8089   82.0409 N   0  0  0  0  0  0
   29.2513   25.6605   82.2350 C   0  0  0  0  0  0
   30.8368   27.3494   83.1975 C   0  0  0  0  0  0
   32.3624   27.2697   83.0168 C   0  0  0  0  0  0
   32.9331   26.2275   82.8297 O   0  0  0  0  0  0
   33.0087   28.4394   83.0748 O   0  0  0  0  0  0
   33.9407   28.4648   82.9816 H   0  0  0  0  0  0
  1  2  1  0  0  0
  1  3  1  0  0  0
  1  4  1  0  0  0
  1  5  1  0  0  0
  5  6  2  0  0  0
  5 16  1  0  0  0
  6  7  1  0  0  0
  6  9  1  0  0  0
  7  8  1  0  0  0
  9 10  2  0  0  0
 10 11  1  0  0  0
 11 12  2  0  0  0
 11 16  1  0  0  0
 12 13  1  0  0  0
 12 17  1  0  0  0
 13 14  2  0  0  0
 14 15  1  0  0  0
 15 16  2  0  0  0
 17 18  2  0  0  0
 17 19  1  0  0  0
 19 20  1  0  0  0
 19 21  1  0  0  0
 21 22  1  0  0  0
 22 23  2  0  0  0
 22 24  1  0  0  0
 24 25  1  0  0  0
M  END
>  <CHROM.0>
1.95164447,167.78513147,-97.96450134,0.22726442,171.28384200,68.30906612
-124.30838164,161.37128905,-60.73660526,62.29730084,-61.54190337,-171.41748660
-61.41326028,-60.50081437,-102.66821711

>  <CHROM.1>
-108.21552804,97.86013606,113.28510321,-61.87407736,-58.50016239,179.37492915
30.17377079,25.30145148,79.23914770,1.94568804,0.67638234,-2.50635655

>  <FORMUL>
      TOL    C16 H14 F3 N1 O3 S1

>  <HET>
 TOL  A 320      24

>  <HETNAM>
     TOL TOLRESTAT

>  <Name>
TOL.pdb

>  <RI>
0

>  <Rbt.Current_Directory>
/home/malgorzata/Desktop/rDOCK_IFD/Wyniki/1a_aldose_reductase/IFD

>  <Rbt.Executable>
rbdock ($Id: //depot/dev/client3/rdock/2013.1/src/exe/rbdock.cxx#4 $)

>  <Rbt.Library>
libRbt.so (2013.1, Build901 2013/11/27)

>  <Rbt.Parameter_File>
/home/malgorzata/Desktop/rDock_2013.1_src/data/scripts/hard_docking.prm

>  <Rbt.Receptor>
cavity.prm

>  <SCORE>
-13.9581

>  <SCORE.INTER>
-4.12946

>  <SCORE.INTER.CONST>
1

>  <SCORE.INTER.POLAR>
0

>  <SCORE.INTER.REPUL>
0

>  <SCORE.INTER.ROT>
5

>  <SCORE.INTER.VDW>
-14.5295

>  <SCORE.INTER.norm>
-0.172061

>  <SCORE.INTRA>
-5.47867

>  <SCORE.INTRA.DIHEDRAL>
3.03838

>  <SCORE.INTRA.DIHEDRAL.0>
16.9783

>  <SCORE.INTRA.POLAR>
0

>  <SCORE.INTRA.POLAR.0>
0

>  <SCORE.INTRA.REPUL>
0

>  <SCORE.INTRA.REPUL.0>
0

>  <SCORE.INTRA.VDW>
-6.99787

>  <SCORE.INTRA.VDW.0>
4.87734

>  <SCORE.INTRA.norm>
-0.228278

>  <SCORE.RESTR>
0.0333691

>  <SCORE.RESTR.CAVITY>
0.0333691

>  <SCORE.RESTR.norm>
0.00139038

>  <SCORE.SYSTEM>
-4.3833

>  <SCORE.SYSTEM.CONST>
0

>  <SCORE.SYSTEM.DIHEDRAL>
3.48578

>  <SCORE.SYSTEM.POLAR>
-0.502416

>  <SCORE.SYSTEM.REPUL>
0.14927

>  <SCORE.SYSTEM.VDW>
-5.16433

>  <SCORE.SYSTEM.norm>
-0.182638

>  <SCORE.heavy>
24

>  <SCORE.norm>
-0.581586

$$$$
TOL.pdb
  rDOCK(R)          3D
libRbt.so/2013.1/901 2013/11/27
 25 26  0  0  0  0  0  0  0  0999 V2000
   28.6896   25.9964   81.4991 C   0  0  0  0  0  0
   29.6838   26.9035   81.6717 F   0  0  0  0  0  0
   28.9607   24.9513   82.3251 F   0  0  0  0  0  0
   27.5277   26.5582   81.9271 F   0  0  0  0  0  0
   28.5729   25.5551   80.0240 C   0  0  0  0  0  0
   27.4552   25.8443   79.1987 C   0  0  0  0  0  0
   26.4389   26.5295   79.6908 O   0  0  0  0  0  0
   26.3834   27.8610   79.2061 C   0  0  0  0  0  0
   27.4463   25.3903   77.8616 C   0  0  0  0  0  0
   28.5240   24.6623   77.3448 C   0  0  0  0  0  0
   29.6342   24.3710   78.1618 C   0  0  0  0  0  0
   30.7165   23.6330   77.6279 C   0  0  0  0  0  0
   31.8236   23.3441   78.4425 C   0  0  0  0  0  0
   31.8579   23.7789   79.7693 C   0  0  0  0  0  0
   30.7843   24.5099   80.2932 C   0  0  0  0  0  0
   29.6636   24.8132   79.4979 C   0  0  0  0  0  0
   30.7635   23.1246   76.2062 C   0  0  0  0  0  0
   31.0734   24.2229   74.9279 S   0  0  0  0  0  0
   30.5779   21.8259   75.9649 N   0  0  0  0  0  0
   30.4227   20.8964   77.0783 C   0  0  0  0  0  0
   30.5438   21.2971   74.6050 C   0  0  0  0  0  0
   29.2864   21.7594   73.8489 C   0  0  0  0  0  0
   28.3561   22.2788   74.4073 O   0  0  0  0  0  0
   29.3025   21.5507   72.5277 O   0  0  0  0  0  0
   30.0465   21.1466   72.1263 H   0  0  0  0  0  0
  1  2  1  0  0  0
  1  3  1  0  0  0
  1  4  1  0  0  0
  1  5  1  0  0  0
  5  6  2  0  0  0
  5 16  1  0  0  0
  6  7  1  0  0  0
  6  9  1  0  0  0
  7  8  1  0  0  0
  9 10  2  0  0  0
 10 11  1  0  0  0
 11 12  2  0  0  0
 11 16  1  0  0  0
 12 13  1  0  0  0
 12 17  1  0  0  0
 13 14  2  0  0  0
 14 15  1  0  0  0
 15 16  2  0  0  0
 17 18  2  0  0  0
 17 19  1  0  0  0
 19 20  1  0  0  0
 19 21  1  0  0  0
 21 22  1  0  0  0
 22 23  2  0  0  0
 22 24  1  0  0  0
 24 25  1  0  0  0
M  END
>  <CHROM.0>
-157.05349177,169.17808161,90.07012135,178.15230590,-69.68579070,-176.45889928
153.16786319,167.87078859,-60.73660526,-55.56126591,-61.54190337,-171.35518201
-61.41326028,-60.50081437,168.55785158

>  <CHROM.1>
-113.65306187,106.55329011,75.01417923,-69.04375322,-12.57373289,0.07586647
29.37877443,24.28546307,78.01510323,-1.84936692,0.55726236,-1.98226749

>  <FORMUL>
      TOL    C16 H14 F3 N1 O3 S1

>  <HET>
 TOL  A 320      24

>  <HETNAM>
     TOL TOLRESTAT

>  <Name>
TOL.pdb

>  <RI>
0

>  <Rbt.Current_Directory>
/home/malgorzata/Desktop/rDOCK_IFD/Wyniki/1a_aldose_reductase/IFD

>  <Rbt.Executable>
rbdock ($Id: //depot/dev/client3/rdock/2013.1/src/exe/rbdock.cxx#4 $)

>  <Rbt.Library>
libRbt.so (2013.1, Build901 2013/11/27)

>  <Rbt.Parameter_File>
/home/malgorzata/Desktop/rDock_2013.1_src/data/scripts/hard_docking.prm

>  <Rbt.Receptor>
cavity.prm

>  <SCORE>
-11.8705

>  <SCORE.INTER>
-4.14174

>  <SCORE.INTER.CONST>
1

>  <SCORE.INTER.POLAR>
0

>  <SCORE.INTER.REPUL>
0

>  <SCORE.INTER.ROT>
5

>  <SCORE.INTER.VDW>
-14.5417

>  <SCORE.INTER.norm>
-0.172573

>  <SCORE.INTRA>
-4.82696

>  <SCORE.INTRA.DIHEDRAL>
3.7793

>  <SCORE.INTRA.DIHEDRAL.0>
16.9783

>  <SCORE.INTRA.POLAR>
0

>  <SCORE.INTRA.POLAR.0>
0

>  <SCORE.INTRA.REPUL>
0

>  <SCORE.INTRA.REPUL.0>
0

>  <SCORE.INTRA.VDW>
-6.71661

>  <SCORE.INTRA.VDW.0>
4.87734

>  <SCORE.INTRA.norm>
-0.201123

>  <SCORE.RESTR>
0

>  <SCORE.RESTR.CAVITY>
0

>  <SCORE.RESTR.norm>
0

>  <SCORE.SYSTEM>
-2.90175

>  <SCORE.SYSTEM.CONST>
0

>  <SCORE.SYSTEM.DIHEDRAL>
3.94839

>  <SCORE.SYSTEM.POLAR>
-1.07632

>  <SCORE.SYSTEM.REPUL>
0.478857

>  <SCORE.SYSTEM.VDW>
-3.61075

>  <SCORE.SYSTEM.norm>
-0.120906

>  <SCORE.heavy>
24

>  <SCORE.norm>
-0.494602

$$$$
TOL.pdb
  rDOCK(R)          3D
libRbt.so/2013.1/901 2013/11/27
 25 26  0  0  0  0  0  0  0  0999 V2000
   23.4772   16.4474   77.2213 C   0  0  0  0  0  0
   22.1356   16.6444   77.1758 F   0  0  0  0  0  0
   23.6975   15.4288   78.0942 F   0  0  0  0  0  0
   23.8824   16.0226   75.9949 F   0  0  0  0  0  0
   24.2270   17.7340   77.6297 C   0  0  0  0  0  0
   25.0137   17.8507   78.8051 C   0  0  0  0  0  0
   25.1320   16.8166   79.6181 O   0  0  0  0  0  0
   24.2083   16.8503   80.6935 C   0  0  0  0  0  0
   25.6565   19.0757   79.0888 C   0  0  0  0  0  0
   25.5263   20.1699   78.2260 C   0  0  0  0  0  0
   24.7441   20.0586   77.0595 C   0  0  0  0  0  0
   24.6194   21.1724   76.1965 C   0  0  0  0  0  0
   23.8405   21.0604   75.0331 C   0  0  0  0  0  0
   23.1920   19.8613   74.7290 C   0  0  0  0  0  0
   23.3191   18.7611   75.5863 C   0  0  0  0  0  0
   24.0941   18.8470   76.7578 C   0  0  0  0  0  0
   25.2852   22.5050   76.4468 C   0  0  0  0  0  0
   24.7829   23.4617   77.7767 S   0  0  0  0  0  0
   26.2650   22.9136   75.6391 N   0  0  0  0  0  0
   26.7461   22.0336   74.5799 C   0  0  0  0  0  0
   26.8909   24.2226   75.7963 C   0  0  0  0  0  0
   27.9347   24.2193   76.9263 C   0  0  0  0  0  0
   29.0347   23.7541   76.7829 O   0  0  0  0  0  0
   27.5372   24.7758   78.0759 O   0  0  0  0  0  0
   28.1138   24.7882   78.8144 H   0  0  0  0  0  0
  1  2  1  0  0  0
  1  3  1  0  0  0
  1  4  1  0  0  0
  1  5  1  0  0  0
  5  6  2  0  0  0
  5 16  1  0  0  0
  6  7  1  0  0  0
  6  9  1  0  0  0
  7  8  1  0  0  0
  9 10  2  0  0  0
 10 11  1  0  0  0
 11 12  2  0  0  0
 11 16  1  0  0  0
 12 13  1  0  0  0
 12 17  1  0  0  0
 13 14  2  0  0  0
 14 15  1  0  0  0
 15 16  2  0  0  0
 17 18  2  0  0  0
 17 19  1  0  0  0
 19 20  1  0  0  0
 19 21  1  0  0  0
 21 22  1  0  0  0
 22 23  2  0  0  0
 22 24  1  0  0  0
 24 25  1  0  0  0
M  END
>  <CHROM.0>
-156.65347024,170.22262805,-102.78303778,-0.84421232,-178.92266529,179.22960305
79.14705030,139.26891072,-60.73660526,-179.29525281,-61.54190337,61.85546660
-61.41326028,-60.50081437,-91.04752832

>  <CHROM.1>
117.70406501,-95.44048223,-67.18260923,79.79692649,77.95445450,178.37798373
25.02590744,20.08536283,77.14747171,2.32618758,0.94839039,2.32790104

>  <FORMUL>
      TOL    C16 H14 F3 N1 O3 S1

>  <HET>
 TOL  A 320      24

>  <HETNAM>
     TOL TOLRESTAT

>  <Name>
TOL.pdb

>  <RI>
0

>  <Rbt.Current_Directory>
/home/malgorzata/Desktop/rDOCK_IFD/Wyniki/1a_aldose_reductase/IFD

>  <Rbt.Executable>
rbdock ($Id: //depot/dev/client3/rdock/2013.1/src/exe/rbdock.cxx#4 $)

>  <Rbt.Library>
libRbt.so (2013.1, Build901 2013/11/27)

>  <Rbt.Parameter_File>
/home/malgorzata/Desktop/rDock_2013.1_src/data/scripts/hard_docking.prm

>  <Rbt.Receptor>
cavity.prm

>  <SCORE>
-17.1024

>  <SCORE.INTER>
-7.87525

>  <SCORE.INTER.CONST>
1

>  <SCORE.INTER.POLAR>
-1.11355

>  <SCORE.INTER.REPUL>
0

>  <SCORE.INTER.ROT>
5

>  <SCORE.INTER.VDW>
-14.4892

>  <SCORE.INTER.norm>
-0.328136

>  <SCORE.INTRA>
-5.51434

>  <SCORE.INTRA.DIHEDRAL>
3.23627

>  <SCORE.INTRA.DIHEDRAL.0>
16.9783

>  <SCORE.INTRA.POLAR>
0

>  <SCORE.INTRA.POLAR.0>
0

>  <SCORE.INTRA.REPUL>
0

>  <SCORE.INTRA.REPUL.0>
0

>  <SCORE.INTRA.VDW>
-7.13248

>  <SCORE.INTRA.VDW.0>
4.87734

>  <SCORE.INTRA.norm>
-0.229764

>  <SCORE.RESTR>
0

>  <SCORE.RESTR.CAVITY>
0

>  <SCORE.RESTR.norm>
0

>  <SCORE.SYSTEM>
-3.71281

>  <SCORE.SYSTEM.CONST>
0

>  <SCORE.SYSTEM.DIHEDRAL>
2.92195

>  <SCORE.SYSTEM.POLAR>
-0.381382

>  <SCORE.SYSTEM.REPUL>
0.228577

>  <SCORE.SYSTEM.VDW>
-5.01997

>  <SCORE.SYSTEM.norm>
-0.1547

>  <SCORE.heavy>
24

>  <SCORE.norm>
-0.7126

$$$$
TOL.pdb
  rDOCK(R)          3D
libRbt.so/2013.1/901 2013/11/27
 25 26  0  0  0  0  0  0  0  0999 V2000
   30.5737   24.0021   82.1754 C   0  0  0  0  0  0
   30.3459   22.7444   82.6306 F   0  0  0  0  0  0
   29.9048   24.8487   83.0024 F   0  0  0  0  0  0
   31.9002   24.2666   82.3143 F   0  0  0  0  0  0
   30.1354   24.1618   80.7035 C   0  0  0  0  0  0
   29.1958   25.1281   80.2592 C   0  0  0  0  0  0
   28.6460   25.9544   81.1305 O   0  0  0  0  0  0
   29.2441   27.2402   81.1268 C   0  0  0  0  0  0
   28.8605   25.1883   78.8887 C   0  0  0  0  0  0
   29.4433   24.3091   77.9691 C   0  0  0  0  0  0
   30.3747   23.3468   78.4067 C   0  0  0  0  0  0
   30.9556   22.4630   77.4674 C   0  0  0  0  0  0
   31.8848   21.5047   77.9041 C   0  0  0  0  0  0
   32.2333   21.4215   79.2542 C   0  0  0  0  0  0
   31.6560   22.2992   80.1803 C   0  0  0  0  0  0
   30.7228   23.2688   79.7685 C   0  0  0  0  0  0
   30.6376   22.4825   75.9908 C   0  0  0  0  0  0
   31.1473   23.8111   75.0361 S   0  0  0  0  0  0
   29.9775   21.4595   75.4458 N   0  0  0  0  0  0
   29.6495   20.2930   76.2579 C   0  0  0  0  0  0
   29.5850   21.4633   74.0401 C   0  0  0  0  0  0
   28.1913   22.0838   73.8428 C   0  0  0  0  0  0
   27.4366   21.7077   72.9850 O   0  0  0  0  0  0
   27.8744   23.0648   74.6952 O   0  0  0  0  0  0
   27.0326   23.4735   74.6470 H   0  0  0  0  0  0
  1  2  1  0  0  0
  1  3  1  0  0  0
  1  4  1  0  0  0
  1  5  1  0  0  0
  5  6  2  0  0  0
  5 16  1  0  0  0
  6  7  1  0  0  0
  6  9  1  0  0  0
  7  8  1  0  0  0
  9 10  2  0  0  0
 10 11  1  0  0  0
 11 12  2  0  0  0
 11 16  1  0  0  0
 12 13  1  0  0  0
 12 17  1  0  0  0
 13 14  2  0  0  0
 14 15  1  0  0  0
 15 16  2  0  0  0
 17 18  2  0  0  0
 17 19  1  0  0  0
 19 20  1  0  0  0
 19 21  1  0  0  0
 21 22  1  0  0  0
 22 23  2  0  0  0
 22 24  1  0  0  0
 24 25  1  0  0  0
M  END
>  <CHROM.0>
2.87572545,52.37567566,-98.80567433,-1.67809230,178.13180213,179.70310312
-121.57229134,168.39384751,-60.73660526,177.33265561,-61.54190337,62.36839914
-61.41326028,-60.50081437,-176.08259554

>  <CHROM.1>
122.95427981,100.50973202,68.52610688,-89.87336306,-146.84440922,-178.45747174
30.04963221,23.33587736,78.34445921,-1.37623307,0.84637670,-2.03932679

>  <FORMUL>
      TOL    C16 H14 F3 N1 O3 S1

>  <HET>
 TOL  A 320      24

>  <HETNAM>
     TOL TOLRESTAT

>  <Name>
TOL.pdb

>  <RI>
0

>  <Rbt.Current_Directory>
/home/malgorzata/Desktop/rDOCK_IFD/Wyniki/1a_aldose_reductase/IFD

>  <Rbt.Executable>
rbdock ($Id: //depot/dev/client3/rdock/2013.1/src/exe/rbdock.cxx#4 $)

>  <Rbt.Library>
libRbt.so (2013.1, Build901 2013/11/27)

>  <Rbt.Parameter_File>
/home/malgorzata/Desktop/rDock_2013.1_src/data/scripts/hard_docking.prm

>  <Rbt.Receptor>
cavity.prm

>  <SCORE>
-15.3887

>  <SCORE.INTER>
-4.02142

>  <SCORE.INTER.CONST>
1

>  <SCORE.INTER.POLAR>
0

>  <SCORE.INTER.REPUL>
0.00600793

>  <SCORE.INTER.ROT>
5

>  <SCORE.INTER.VDW>
-14.4515

>  <SCORE.INTER.norm>
-0.167559

>  <SCORE.INTRA>
-5.42675

>  <SCORE.INTRA.DIHEDRAL>
3.12154

>  <SCORE.INTRA.DIHEDRAL.0>
16.9783

>  <SCORE.INTRA.POLAR>
0

>  <SCORE.INTRA.POLAR.0>
0

>  <SCORE.INTRA.REPUL>
0

>  <SCORE.INTRA.REPUL.0>
0

>  <SCORE.INTRA.VDW>
-6.98751

>  <SCORE.INTRA.VDW.0>
4.87734

>  <SCORE.INTRA.norm>
-0.226114

>  <SCORE.RESTR>
0

>  <SCORE.RESTR.CAVITY>
0

>  <SCORE.RESTR.norm>
0

>  <SCORE.SYSTEM>
-5.94053

>  <SCORE.SYSTEM.CONST>
0

>  <SCORE.SYSTEM.DIHEDRAL>
2.06918

>  <SCORE.SYSTEM.POLAR>
-0.500632

>  <SCORE.SYSTEM.VDW>
-5.27298

>  <SCORE.SYSTEM.norm>
-0.247522

>  <SCORE.heavy>
24

>  <SCORE.norm>
-0.641196

$$$$
TOL.pdb
  rDOCK(R)          3D
libRbt.so/2013.1/901 2013/11/27
 25 26  0  0  0  0  0  0  0  0999 V2000
   28.9914   19.6604   75.8388 C   0  0  0  0  0  0
   30.0437   19.1624   75.1420 F   0  0  0  0  0  0
   27.8784   19.4262   75.0942 F   0  0  0  0  0  0
   28.8678   18.9415   76.9863 F   0  0  0  0  0  0
   29.1756   21.1614   76.1508 C   0  0  0  0  0  0
   28.4135   22.1938   75.5448 C   0  0  0  0  0  0
   27.4843   21.8862   74.6581 O   0  0  0  0  0  0
   27.9852   21.8180   73.3332 C   0  0  0  0  0  0
   28.6643   23.5378   75.8984 C   0  0  0  0  0  0
   29.6517   23.8597   76.8364 C   0  0  0  0  0  0
   30.4120   22.8377   77.4383 C   0  0  0  0  0  0
   31.4081   23.1764   78.3839 C   0  0  0  0  0  0
   32.1649   22.1570   78.9845 C   0  0  0  0  0  0
   31.9394   20.8193   78.6518 C   0  0  0  0  0  0
   30.9516   20.4889   77.7156 C   0  0  0  0  0  0
   30.1791   21.4912   77.0999 C   0  0  0  0  0  0
   31.7184   24.5942   78.8025 C   0  0  0  0  0  0
   32.2946   25.7104   77.6371 S   0  0  0  0  0  0
   31.5264   24.9636   80.0698 N   0  0  0  0  0  0
   30.9344   24.0252   81.0169 C   0  0  0  0  0  0
   31.8772   26.3002   80.5393 C   0  0  0  0  0  0
   30.6312   27.1862   80.7088 C   0  0  0  0  0  0
   29.9473   27.5177   79.7764 O   0  0  0  0  0  0
   30.3570   27.5560   81.9648 O   0  0  0  0  0  0
   29.6116   28.0953   82.1422 H   0  0  0  0  0  0
  1  2  1  0  0  0
  1  3  1  0  0  0
  1  4  1  0  0  0
  1  5  1  0  0  0
  5  6  2  0  0  0
  5 16  1  0  0  0
  6  7  1  0  0  0
  6  9  1  0  0  0
  7  8  1  0  0  0
  9 10  2  0  0  0
 10 11  1  0  0  0
 11 12  2  0  0  0
 11 16  1  0  0  0
 12 13  1  0  0  0
 12 17  1  0  0  0
 13 14  2  0  0  0
 14 15  1  0  0  0
 15 16  2  0  0  0
 17 18  2  0  0  0
 17 19  1  0  0  0
 19 20  1  0  0  0
 19 21  1  0  0  0
 21 22  1  0  0  0
 22 23  2  0  0  0
 22 24  1  0  0  0
 24 25  1  0  0  0
M  END
>  <CHROM.0>
-157.76415360,52.74055973,-99.05813548,-2.05706861,172.98081439,72.22949004
155.90072275,-42.65975160,-60.73660526,178.49798510,-61.54190337,61.72199741
-61.41326028,-60.50081437,-121.34591027

>  <CHROM.1>
109.61829082,-88.65610326,-62.47508526,103.71238894,-65.16751643,-179.90472336
30.17723233,22.99623645,77.63238752,-2.06692832,-0.89868020,0.26723293

>  <FORMUL>
      TOL    C16 H14 F3 N1 O3 S1

>  <HET>
 TOL  A 320      24

>  <HETNAM>
     TOL TOLRESTAT

>  <Name>
TOL.pdb

>  <RI>
0

>  <Rbt.Current_Directory>
/home/malgorzata/Desktop/rDOCK_IFD/Wyniki/1a_aldose_reductase/IFD

>  <Rbt.Executable>
rbdock ($Id: //depot/dev/client3/rdock/2013.1/src/exe/rbdock.cxx#4 $)

>  <Rbt.Library>
libRbt.so (2013.1, Build901 2013/11/27)

>  <Rbt.Parameter_File>
/home/malgorzata/Desktop/rDock_2013.1_src/data/scripts/hard_docking.prm

>  <Rbt.Receptor>
cavity.prm

>  <SCORE>
-16.1778

>  <SCORE.INTER>
-3.38108

>  <SCORE.INTER.CONST>
1

>  <SCORE.INTER.POLAR>
-1

>  <SCORE.INTER.REPUL>
0.0023197

>  <SCORE.INTER.ROT>
5

>  <SCORE.INTER.VDW>
-10.3927

>  <SCORE.INTER.norm>
-0.140878

>  <SCORE.INTRA>
-5.16256

>  <SCORE.INTRA.DIHEDRAL>
2.44061

>  <SCORE.INTRA.DIHEDRAL.0>
16.9783

>  <SCORE.INTRA.POLAR>
0

>  <SCORE.INTRA.POLAR.0>
0

>  <SCORE.INTRA.REPUL>
0

>  <SCORE.INTRA.REPUL.0>
0

>  <SCORE.INTRA.VDW>
-6.38286

>  <SCORE.INTRA.VDW.0>
4.87734

>  <SCORE.INTRA.norm>
-0.215107

>  <SCORE.RESTR>
0.364848

>  <SCORE.RESTR.CAVITY>
0.364848

>  <SCORE.RESTR.norm>
0.015202

>  <SCORE.SYSTEM>
-7.99899

>  <SCORE.SYSTEM.CONST>
0

>  <SCORE.SYSTEM.DIHEDRAL>
3.63636

>  <SCORE.SYSTEM.POLAR>
-1.46217

>  <SCORE.SYSTEM.REPUL>
0.0507346

>  <SCORE.SYSTEM.VDW>
-5.09946

>  <SCORE.SYSTEM.norm>
-0.333291

>  <SCORE.heavy>
24

>  <SCORE.norm>
-0.674074

$$$$
