TOL.pdb
  rDOCK(R)          3D
libRbt.so/2013.1/901 2013/11/27
 25 26  0  0  0  0  0  0  0  0999 V2000
   29.0052   26.7251   81.0330 C   0  0  0  0  0  0
   28.0752   27.5935   80.5622 F   0  0  0  0  0  0
   29.7812   27.4148   81.9106 F   0  0  0  0  0  0
   28.3600   25.7582   81.7385 F   0  0  0  0  0  0
   29.8349   26.1050   79.8879 C   0  0  0  0  0  0
   31.2536   26.1020   79.8519 C   0  0  0  0  0  0
   31.9340   26.6536   80.8404 O   0  0  0  0  0  0
   32.3765   25.7094   81.8014 C   0  0  0  0  0  0
   31.9169   25.5105   78.7544 C   0  0  0  0  0  0
   31.1922   24.9295   77.7076 C   0  0  0  0  0  0
   29.7837   24.9327   77.7386 C   0  0  0  0  0  0
   29.0629   24.3434   76.6736 C   0  0  0  0  0  0
   27.6587   24.3459   76.7056 C   0  0  0  0  0  0
   26.9769   24.9259   77.7778 C   0  0  0  0  0  0
   27.6950   25.5074   78.8303 C   0  0  0  0  0  0
   29.1022   25.5176   78.8226 C   0  0  0  0  0  0
   29.7175   23.6945   75.4768 C   0  0  0  0  0  0
   29.7257   24.5148   73.9724 S   0  0  0  0  0  0
   30.2933   22.4986   75.6091 N   0  0  0  0  0  0
   30.3663   21.8704   76.9236 C   0  0  0  0  0  0
   30.8763   21.7992   74.4685 C   0  0  0  0  0  0
   29.7921   21.2671   73.5158 C   0  0  0  0  0  0
   28.7601   20.7965   73.9163 O   0  0  0  0  0  0
   30.0732   21.3707   72.2121 O   0  0  0  0  0  0
   30.8885   21.7413   71.9366 H   0  0  0  0  0  0
  1  2  1  0  0  0
  1  3  1  0  0  0
  1  4  1  0  0  0
  1  5  1  0  0  0
  5  6  2  0  0  0
  5 16  1  0  0  0
  6  7  1  0  0  0
  6  9  1  0  0  0
  7  8  1  0  0  0
  9 10  2  0  0  0
 10 11  1  0  0  0
 11 12  2  0  0  0
 11 16  1  0  0  0
 12 13  1  0  0  0
 12 17  1  0  0  0
 13 14  2  0  0  0
 14 15  1  0  0  0
 15 16  2  0  0  0
 17 18  2  0  0  0
 17 19  1  0  0  0
 19 20  1  0  0  0
 19 21  1  0  0  0
 21 22  1  0  0  0
 22 23  2  0  0  0
 22 24  1  0  0  0
 24 25  1  0  0  0
M  END
>  <CHROM.0>
-61.27965238,-96.91953948,-2.98588221,-177.77762473,60.08576199,-81.69125740
64.20755595,-117.93474198,-60.06725284,62.96516796,-61.54190337,61.47145644
-61.41326028,-60.50081437,179.88438057

>  <CHROM.1>
127.75657879,97.40968896,-104.89887400,-71.68492067,-38.87814254,0.48682193
29.72397989,24.61553584,77.69014175,1.56269858,-0.18962887,1.01428566

>  <FORMUL>
      TOL    C16 H14 F3 N1 O3 S1

>  <HET>
 TOL  A 320      24

>  <HETNAM>
     TOL TOLRESTAT

>  <Name>
TOL.pdb

>  <RI>
0

>  <Rbt.Current_Directory>
/home/malgorzata/Desktop/rDOCK_IFD/Wyniki/1a_aldose_reductase/IFD

>  <Rbt.Executable>
rbdock ($Id: //depot/dev/client3/rdock/2013.1/src/exe/rbdock.cxx#4 $)

>  <Rbt.Library>
libRbt.so (2013.1, Build901 2013/11/27)

>  <Rbt.Parameter_File>
/home/malgorzata/Desktop/rDock_2013.1_src/data/scripts/hard_docking.prm

>  <Rbt.Receptor>
cavity.prm

>  <SCORE>
-14.0248

>  <SCORE.INTER>
-1.54964

>  <SCORE.INTER.CONST>
1

>  <SCORE.INTER.POLAR>
0

>  <SCORE.INTER.REPUL>
0

>  <SCORE.INTER.ROT>
5

>  <SCORE.INTER.VDW>
-11.9496

>  <SCORE.INTER.norm>
-0.0645683

>  <SCORE.INTRA>
-5.16322

>  <SCORE.INTRA.DIHEDRAL>
4.09268

>  <SCORE.INTRA.DIHEDRAL.0>
16.9783

>  <SCORE.INTRA.POLAR>
0

>  <SCORE.INTRA.POLAR.0>
0

>  <SCORE.INTRA.REPUL>
0

>  <SCORE.INTRA.REPUL.0>
0

>  <SCORE.INTRA.VDW>
-7.20956

>  <SCORE.INTRA.VDW.0>
4.87734

>  <SCORE.INTRA.norm>
-0.215134

>  <SCORE.RESTR>
0.0652931

>  <SCORE.RESTR.CAVITY>
0.0652931

>  <SCORE.RESTR.norm>
0.00272054

>  <SCORE.SYSTEM>
-7.37726

>  <SCORE.SYSTEM.CONST>
0

>  <SCORE.SYSTEM.DIHEDRAL>
1.84218

>  <SCORE.SYSTEM.POLAR>
-0.582959

>  <SCORE.SYSTEM.REPUL>
0.0116311

>  <SCORE.SYSTEM.VDW>
-6.37444

>  <SCORE.SYSTEM.norm>
-0.307386

>  <SCORE.heavy>
24

>  <SCORE.norm>
-0.584368

$$$$
TOL.pdb
  rDOCK(R)          3D
libRbt.so/2013.1/901 2013/11/27
 25 26  0  0  0  0  0  0  0  0999 V2000
   30.5740   21.2682   76.8498 C   0  0  0  0  0  0
   30.1855   20.1681   77.5424 F   0  0  0  0  0  0
   31.9155   21.1608   76.6579 F   0  0  0  0  0  0
   29.9863   21.2239   75.6245 F   0  0  0  0  0  0
   30.1962   22.5690   77.5910 C   0  0  0  0  0  0
   29.3937   23.5950   77.0275 C   0  0  0  0  0  0
   28.9269   23.4598   75.7995 O   0  0  0  0  0  0
   29.7357   24.1006   74.8268 C   0  0  0  0  0  0
   29.1096   24.7489   77.7903 C   0  0  0  0  0  0
   29.6085   24.8895   79.0902 C   0  0  0  0  0  0
   30.4075   23.8742   79.6521 C   0  0  0  0  0  0
   30.9069   24.0290   80.9665 C   0  0  0  0  0  0
   31.7024   23.0160   81.5265 C   0  0  0  0  0  0
   32.0010   21.8650   80.7938 C   0  0  0  0  0  0
   31.5037   21.7160   79.4931 C   0  0  0  0  0  0
   30.7038   22.7158   78.9091 C   0  0  0  0  0  0
   30.6339   25.2384   81.8294 C   0  0  0  0  0  0
   29.0764   25.4538   82.5105 S   0  0  0  0  0  0
   31.6117   26.1153   82.0624 N   0  0  0  0  0  0
   32.9558   25.8533   81.5597 C   0  0  0  0  0  0
   31.3797   27.3346   82.8302 C   0  0  0  0  0  0
   31.2255   28.5604   81.9138 C   0  0  0  0  0  0
   30.1676   28.8758   81.4360 O   0  0  0  0  0  0
   32.3469   29.2549   81.6912 O   0  0  0  0  0  0
   33.1524   28.9827   82.0851 H   0  0  0  0  0  0
  1  2  1  0  0  0
  1  3  1  0  0  0
  1  4  1  0  0  0
  1  5  1  0  0  0
  5  6  2  0  0  0
  5 16  1  0  0  0
  6  7  1  0  0  0
  6  9  1  0  0  0
  7  8  1  0  0  0
  9 10  2  0  0  0
 10 11  1  0  0  0
 11 12  2  0  0  0
 11 16  1  0  0  0
 12 13  1  0  0  0
 12 17  1  0  0  0
 13 14  2  0  0  0
 14 15  1  0  0  0
 15 16  2  0  0  0
 17 18  2  0  0  0
 17 19  1  0  0  0
 19 20  1  0  0  0
 19 21  1  0  0  0
 21 22  1  0  0  0
 22 23  2  0  0  0
 22 24  1  0  0  0
 24 25  1  0  0  0
M  END
>  <CHROM.0>
43.27654144,-96.58719533,1.57334491,16.45368849,61.17645974,-169.75864181
-177.86717236,-120.01476679,-60.06725284,63.92228052,-61.54190337,-68.29689367
-61.41326028,-60.50081437,148.85967428

>  <CHROM.1>
-123.12231476,-95.98317329,73.09199077,-101.15652833,86.59804843,-0.06409097
30.61096082,24.22546511,79.45760585,-1.84200158,-1.17917289,0.53505514

>  <FORMUL>
      TOL    C16 H14 F3 N1 O3 S1

>  <HET>
 TOL  A 320      24

>  <HETNAM>
     TOL TOLRESTAT

>  <Name>
TOL.pdb

>  <RI>
0

>  <Rbt.Current_Directory>
/home/malgorzata/Desktop/rDOCK_IFD/Wyniki/1a_aldose_reductase/IFD

>  <Rbt.Executable>
rbdock ($Id: //depot/dev/client3/rdock/2013.1/src/exe/rbdock.cxx#4 $)

>  <Rbt.Library>
libRbt.so (2013.1, Build901 2013/11/27)

>  <Rbt.Parameter_File>
/home/malgorzata/Desktop/rDock_2013.1_src/data/scripts/hard_docking.prm

>  <Rbt.Receptor>
cavity.prm

>  <SCORE>
-17.2315

>  <SCORE.INTER>
-6.56439

>  <SCORE.INTER.CONST>
1

>  <SCORE.INTER.POLAR>
-0.697749

>  <SCORE.INTER.REPUL>
0

>  <SCORE.INTER.ROT>
5

>  <SCORE.INTER.VDW>
-14.592

>  <SCORE.INTER.norm>
-0.273516

>  <SCORE.INTRA>
-4.63443

>  <SCORE.INTRA.DIHEDRAL>
3.86382

>  <SCORE.INTRA.DIHEDRAL.0>
16.9783

>  <SCORE.INTRA.POLAR>
0

>  <SCORE.INTRA.POLAR.0>
0

>  <SCORE.INTRA.REPUL>
0

>  <SCORE.INTRA.REPUL.0>
0

>  <SCORE.INTRA.VDW>
-6.56633

>  <SCORE.INTRA.VDW.0>
4.87734

>  <SCORE.INTRA.norm>
-0.193101

>  <SCORE.RESTR>
0.0929043

>  <SCORE.RESTR.CAVITY>
0.0929043

>  <SCORE.RESTR.norm>
0.00387101

>  <SCORE.SYSTEM>
-6.12557

>  <SCORE.SYSTEM.CONST>
0

>  <SCORE.SYSTEM.DIHEDRAL>
3.79907

>  <SCORE.SYSTEM.POLAR>
-0.506295

>  <SCORE.SYSTEM.REPUL>
0.128448

>  <SCORE.SYSTEM.VDW>
-6.94595

>  <SCORE.SYSTEM.norm>
-0.255232

>  <SCORE.heavy>
24

>  <SCORE.norm>
-0.717979

$$$$
TOL.pdb
  rDOCK(R)          3D
libRbt.so/2013.1/901 2013/11/27
 25 26  0  0  0  0  0  0  0  0999 V2000
   28.5839   22.6188   75.8578 C   0  0  0  0  0  0
   28.8461   21.3099   75.6151 F   0  0  0  0  0  0
   28.7274   23.2760   74.6765 F   0  0  0  0  0  0
   27.2787   22.7263   76.2234 F   0  0  0  0  0  0
   29.5082   23.1894   76.9553 C   0  0  0  0  0  0
   30.6548   22.5162   77.4515 C   0  0  0  0  0  0
   30.9778   21.3307   76.9670 O   0  0  0  0  0  0
   32.0141   21.3919   76.0011 C   0  0  0  0  0  0
   31.4321   23.1253   78.4609 C   0  0  0  0  0  0
   31.0849   24.3804   78.9735 C   0  0  0  0  0  0
   29.9459   25.0506   78.4851 C   0  0  0  0  0  0
   29.6049   26.3181   79.0126 C   0  0  0  0  0  0
   28.4700   26.9863   78.5245 C   0  0  0  0  0  0
   27.6819   26.4062   77.5279 C   0  0  0  0  0  0
   28.0241   25.1514   77.0083 C   0  0  0  0  0  0
   29.1564   24.4614   77.4796 C   0  0  0  0  0  0
   30.3993   27.0187   80.0896 C   0  0  0  0  0  0
   31.8952   27.7531   79.6909 S   0  0  0  0  0  0
   29.9200   27.0696   81.3334 N   0  0  0  0  0  0
   28.5959   26.5305   81.6230 C   0  0  0  0  0  0
   30.6812   27.6724   82.4230 C   0  0  0  0  0  0
   31.3127   26.6038   83.3318 C   0  0  0  0  0  0
   30.8799   26.3544   84.4261 O   0  0  0  0  0  0
   32.3709   25.9668   82.8183 O   0  0  0  0  0  0
   32.7906   25.2863   83.3069 H   0  0  0  0  0  0
  1  2  1  0  0  0
  1  3  1  0  0  0
  1  4  1  0  0  0
  1  5  1  0  0  0
  5  6  2  0  0  0
  5 16  1  0  0  0
  6  7  1  0  0  0
  6  9  1  0  0  0
  7  8  1  0  0  0
  9 10  2  0  0  0
 10 11  1  0  0  0
 11 12  2  0  0  0
 11 16  1  0  0  0
 12 13  1  0  0  0
 12 17  1  0  0  0
 13 14  2  0  0  0
 14 15  1  0  0  0
 15 16  2  0  0  0
 17 18  2  0  0  0
 17 19  1  0  0  0
 19 20  1  0  0  0
 19 21  1  0  0  0
 21 22  1  0  0  0
 22 23  2  0  0  0
 22 24  1  0  0  0
 24 25  1  0  0  0
M  END
>  <CHROM.0>
-60.41476809,-96.16073715,-154.54888432,-175.29067582,-61.02048828,72.02344005
-178.64012691,-116.52137289,-60.06725284,179.89591885,-61.54190337,61.86438287
-61.41326028,-60.50081437,-140.57531076

>  <CHROM.1>
11.78634718,99.99112496,75.11588814,-103.41877763,-105.44017669,-178.26095492
29.99431930,24.84086248,78.77333838,1.84959512,0.65900935,-2.38194379

>  <FORMUL>
      TOL    C16 H14 F3 N1 O3 S1

>  <HET>
 TOL  A 320      24

>  <HETNAM>
     TOL TOLRESTAT

>  <Name>
TOL.pdb

>  <RI>
0

>  <Rbt.Current_Directory>
/home/malgorzata/Desktop/rDOCK_IFD/Wyniki/1a_aldose_reductase/IFD

>  <Rbt.Executable>
rbdock ($Id: //depot/dev/client3/rdock/2013.1/src/exe/rbdock.cxx#4 $)

>  <Rbt.Library>
libRbt.so (2013.1, Build901 2013/11/27)

>  <Rbt.Parameter_File>
/home/malgorzata/Desktop/rDock_2013.1_src/data/scripts/hard_docking.prm

>  <Rbt.Receptor>
cavity.prm

>  <SCORE>
-17.699

>  <SCORE.INTER>
-5.52676

>  <SCORE.INTER.CONST>
1

>  <SCORE.INTER.POLAR>
-0.632456

>  <SCORE.INTER.REPUL>
0

>  <SCORE.INTER.ROT>
5

>  <SCORE.INTER.VDW>
-13.7764

>  <SCORE.INTER.norm>
-0.230282

>  <SCORE.INTRA>
-4.88517

>  <SCORE.INTRA.DIHEDRAL>
4.02116

>  <SCORE.INTRA.DIHEDRAL.0>
16.9783

>  <SCORE.INTRA.POLAR>
0

>  <SCORE.INTRA.POLAR.0>
0

>  <SCORE.INTRA.REPUL>
0

>  <SCORE.INTRA.REPUL.0>
0

>  <SCORE.INTRA.VDW>
-6.89575

>  <SCORE.INTRA.VDW.0>
4.87734

>  <SCORE.INTRA.norm>
-0.203549

>  <SCORE.RESTR>
0.0204893

>  <SCORE.RESTR.CAVITY>
0.0204893

>  <SCORE.RESTR.norm>
0.000853719

>  <SCORE.SYSTEM>
-7.30759

>  <SCORE.SYSTEM.CONST>
0

>  <SCORE.SYSTEM.DIHEDRAL>
2.61719

>  <SCORE.SYSTEM.POLAR>
-0.811637

>  <SCORE.SYSTEM.REPUL>
0.0420974

>  <SCORE.SYSTEM.VDW>
-6.0671

>  <SCORE.SYSTEM.norm>
-0.304483

>  <SCORE.heavy>
24

>  <SCORE.norm>
-0.737459

$$$$
TOL.pdb
  rDOCK(R)          3D
libRbt.so/2013.1/901 2013/11/27
 25 26  0  0  0  0  0  0  0  0999 V2000
   31.0414   21.0689   77.1871 C   0  0  0  0  0  0
   32.3737   20.8473   77.3158 F   0  0  0  0  0  0
   30.7601   21.0248   75.8578 F   0  0  0  0  0  0
   30.3835   20.0334   77.7733 F   0  0  0  0  0  0
   30.6247   22.4124   77.8240 C   0  0  0  0  0  0
   29.9254   23.4332   77.1291 C   0  0  0  0  0  0
   29.5968   23.2547   75.8624 O   0  0  0  0  0  0
   28.2805   22.7534   75.6979 C   0  0  0  0  0  0
   29.5943   24.6284   77.8044 C   0  0  0  0  0  0
   29.9468   24.8146   79.1459 C   0  0  0  0  0  0
   30.6432   23.8045   79.8385 C   0  0  0  0  0  0
   30.9949   24.0057   81.1938 C   0  0  0  0  0  0
   31.6881   22.9979   81.8840 C   0  0  0  0  0  0
   32.0301   21.8066   81.2400 C   0  0  0  0  0  0
   31.6791   21.6118   79.8982 C   0  0  0  0  0  0
   30.9839   22.6055   79.1843 C   0  0  0  0  0  0
   30.6654   25.2606   81.9675 C   0  0  0  0  0  0
   29.0441   25.5630   82.4324 S   0  0  0  0  0  0
   31.6417   26.1097   82.2916 N   0  0  0  0  0  0
   33.0267   25.7764   81.9775 C   0  0  0  0  0  0
   31.3654   27.3688   82.9760 C   0  0  0  0  0  0
   31.3148   28.5495   81.9913 C   0  0  0  0  0  0
   30.2773   29.0023   81.5845 O   0  0  0  0  0  0
   32.5033   29.0421   81.6249 O   0  0  0  0  0  0
   32.5473   29.7760   81.0440 H   0  0  0  0  0  0
  1  2  1  0  0  0
  1  3  1  0  0  0
  1  4  1  0  0  0
  1  5  1  0  0  0
  5  6  2  0  0  0
  5 16  1  0  0  0
  6  7  1  0  0  0
  6  9  1  0  0  0
  7  8  1  0  0  0
  9 10  2  0  0  0
 10 11  1  0  0  0
 11 12  2  0  0  0
 11 16  1  0  0  0
 12 13  1  0  0  0
 12 17  1  0  0  0
 13 14  2  0  0  0
 14 15  1  0  0  0
 15 16  2  0  0  0
 17 18  2  0  0  0
 17 19  1  0  0  0
 19 20  1  0  0  0
 19 21  1  0  0  0
 21 22  1  0  0  0
 22 23  2  0  0  0
 22 24  1  0  0  0
 24 25  1  0  0  0
M  END
>  <CHROM.0>
-59.65883127,-95.30839764,-154.83536006,18.35934030,-59.94835217,-77.03246155
-178.08209354,-127.90823991,-60.06725284,179.82938354,-61.54190337,-67.81080573
-61.41326028,-60.50081437,143.37537559

>  <CHROM.1>
124.98944932,94.79167816,72.06677745,-98.41466882,99.72999864,-178.46397904
30.77590368,24.09368455,79.68230994,-1.72122369,-1.04512210,0.60383875

>  <FORMUL>
      TOL    C16 H14 F3 N1 O3 S1

>  <HET>
 TOL  A 320      24

>  <HETNAM>
     TOL TOLRESTAT

>  <Name>
TOL.pdb

>  <RI>
0

>  <Rbt.Current_Directory>
/home/malgorzata/Desktop/rDOCK_IFD/Wyniki/1a_aldose_reductase/IFD

>  <Rbt.Executable>
rbdock ($Id: //depot/dev/client3/rdock/2013.1/src/exe/rbdock.cxx#4 $)

>  <Rbt.Library>
libRbt.so (2013.1, Build901 2013/11/27)

>  <Rbt.Parameter_File>
/home/malgorzata/Desktop/rDock_2013.1_src/data/scripts/hard_docking.prm

>  <Rbt.Receptor>
cavity.prm

>  <SCORE>
-17.9413

>  <SCORE.INTER>
-6.14946

>  <SCORE.INTER.CONST>
1

>  <SCORE.INTER.POLAR>
-0.667601

>  <SCORE.INTER.REPUL>
0

>  <SCORE.INTER.ROT>
5

>  <SCORE.INTER.VDW>
-14.2796

>  <SCORE.INTER.norm>
-0.256227

>  <SCORE.INTRA>
-5.11857

>  <SCORE.INTRA.DIHEDRAL>
3.75804

>  <SCORE.INTRA.DIHEDRAL.0>
16.9783

>  <SCORE.INTRA.POLAR>
0

>  <SCORE.INTRA.POLAR.0>
0

>  <SCORE.INTRA.REPUL>
0

>  <SCORE.INTRA.REPUL.0>
0

>  <SCORE.INTRA.VDW>
-6.99759

>  <SCORE.INTRA.VDW.0>
4.87734

>  <SCORE.INTRA.norm>
-0.213274

>  <SCORE.RESTR>
0.359563

>  <SCORE.RESTR.CAVITY>
0.359563

>  <SCORE.RESTR.norm>
0.0149818

>  <SCORE.SYSTEM>
-7.03278

>  <SCORE.SYSTEM.CONST>
0

>  <SCORE.SYSTEM.DIHEDRAL>
3.33065

>  <SCORE.SYSTEM.POLAR>
-0.810016

>  <SCORE.SYSTEM.REPUL>
0.0652448

>  <SCORE.SYSTEM.VDW>
-6.27028

>  <SCORE.SYSTEM.norm>
-0.293033

>  <SCORE.heavy>
24

>  <SCORE.norm>
-0.747552

$$$$
TOL.pdb
  rDOCK(R)          3D
libRbt.so/2013.1/901 2013/11/27
 25 26  0  0  0  0  0  0  0  0999 V2000
   23.3583   16.5732   79.1967 C   0  0  0  0  0  0
   22.9006   15.7029   78.2619 F   0  0  0  0  0  0
   22.3405   17.4325   79.4683 F   0  0  0  0  0  0
   23.6109   15.8742   80.3353 F   0  0  0  0  0  0
   24.6267   17.3100   78.7145 C   0  0  0  0  0  0
   25.8197   17.4110   79.4764 C   0  0  0  0  0  0
   25.8813   16.8529   80.6718 O   0  0  0  0  0  0
   25.9533   17.8026   81.7224 C   0  0  0  0  0  0
   26.9239   18.1119   78.9437 C   0  0  0  0  0  0
   26.8535   18.7043   77.6777 C   0  0  0  0  0  0
   25.6701   18.6082   76.9194 C   0  0  0  0  0  0
   25.6114   19.2126   75.6417 C   0  0  0  0  0  0
   24.4317   19.1155   74.8857 C   0  0  0  0  0  0
   23.3236   18.4300   75.3890 C   0  0  0  0  0  0
   23.3869   17.8327   76.6542 C   0  0  0  0  0  0
   24.5571   17.9149   77.4315 C   0  0  0  0  0  0
   26.7601   19.9716   75.0204 C   0  0  0  0  0  0
   27.8032   19.1711   73.9216 S   0  0  0  0  0  0
   26.9396   21.2582   75.3231 N   0  0  0  0  0  0
   25.9756   21.9436   76.1768 C   0  0  0  0  0  0
   28.0744   22.0156   74.8048 C   0  0  0  0  0  0
   29.3102   21.8748   75.7099 C   0  0  0  0  0  0
   30.3152   22.5102   75.5277 O   0  0  0  0  0  0
   29.1872   21.0031   76.7170 O   0  0  0  0  0  0
   29.9020   20.8646   77.3067 H   0  0  0  0  0  0
  1  2  1  0  0  0
  1  3  1  0  0  0
  1  4  1  0  0  0
  1  5  1  0  0  0
  5  6  2  0  0  0
  5 16  1  0  0  0
  6  7  1  0  0  0
  6  9  1  0  0  0
  7  8  1  0  0  0
  9 10  2  0  0  0
 10 11  1  0  0  0
 11 12  2  0  0  0
 11 16  1  0  0  0
 12 13  1  0  0  0
 12 17  1  0  0  0
 13 14  2  0  0  0
 14 15  1  0  0  0
 15 16  2  0  0  0
 17 18  2  0  0  0
 17 19  1  0  0  0
 19 20  1  0  0  0
 19 21  1  0  0  0
 21 22  1  0  0  0
 22 23  2  0  0  0
 22 24  1  0  0  0
 24 25  1  0  0  0
M  END
>  <CHROM.0>
-61.13136546,-104.24578822,-3.58914941,179.17100993,-61.51335545,-86.91824334
-178.92163038,-133.92054132,-60.06725284,178.37794751,-61.54190337,61.39419103
-61.41326028,-60.50081437,138.29366260

>  <CHROM.1>
-129.78728686,-111.64162895,96.45552494,-87.11466761,-173.39062207,179.81423542
25.87036761,18.81967453,77.21639148,2.31687881,0.53145627,1.92951190

>  <FORMUL>
      TOL    C16 H14 F3 N1 O3 S1

>  <HET>
 TOL  A 320      24

>  <HETNAM>
     TOL TOLRESTAT

>  <Name>
TOL.pdb

>  <RI>
0

>  <Rbt.Current_Directory>
/home/malgorzata/Desktop/rDOCK_IFD/Wyniki/1a_aldose_reductase/IFD

>  <Rbt.Executable>
rbdock ($Id: //depot/dev/client3/rdock/2013.1/src/exe/rbdock.cxx#4 $)

>  <Rbt.Library>
libRbt.so (2013.1, Build901 2013/11/27)

>  <Rbt.Parameter_File>
/home/malgorzata/Desktop/rDock_2013.1_src/data/scripts/hard_docking.prm

>  <Rbt.Receptor>
cavity.prm

>  <SCORE>
-11.1129

>  <SCORE.INTER>
1.27974

>  <SCORE.INTER.CONST>
1

>  <SCORE.INTER.POLAR>
-0.4

>  <SCORE.INTER.REPUL>
0

>  <SCORE.INTER.ROT>
5

>  <SCORE.INTER.VDW>
-7.76026

>  <SCORE.INTER.norm>
0.0533226

>  <SCORE.INTRA>
-5.18587

>  <SCORE.INTRA.DIHEDRAL>
4.22521

>  <SCORE.INTRA.DIHEDRAL.0>
16.9783

>  <SCORE.INTRA.POLAR>
0

>  <SCORE.INTRA.POLAR.0>
0

>  <SCORE.INTRA.REPUL>
0

>  <SCORE.INTRA.REPUL.0>
0

>  <SCORE.INTRA.VDW>
-7.29847

>  <SCORE.INTRA.VDW.0>
4.87734

>  <SCORE.INTRA.norm>
-0.216078

>  <SCORE.RESTR>
0.0258074

>  <SCORE.RESTR.CAVITY>
0.0258074

>  <SCORE.RESTR.norm>
0.00107531

>  <SCORE.SYSTEM>
-7.23255

>  <SCORE.SYSTEM.CONST>
0

>  <SCORE.SYSTEM.DIHEDRAL>
1.72997

>  <SCORE.SYSTEM.POLAR>
-0.575408

>  <SCORE.SYSTEM.REPUL>
0.0430517

>  <SCORE.SYSTEM.VDW>
-6.3564

>  <SCORE.SYSTEM.norm>
-0.301356

>  <SCORE.heavy>
24

>  <SCORE.norm>
-0.463036

$$$$
TOL.pdb
  rDOCK(R)          3D
libRbt.so/2013.1/901 2013/11/27
 25 26  0  0  0  0  0  0  0  0999 V2000
   27.1785   17.4545   80.6396 C   0  0  0  0  0  0
   28.0520   18.4922   80.6095 F   0  0  0  0  0  0
   27.8885   16.3320   80.3498 F   0  0  0  0  0  0
   26.7216   17.3251   81.9137 F   0  0  0  0  0  0
   26.0066   17.6695   79.6575 C   0  0  0  0  0  0
   24.6406   17.6558   80.0421 C   0  0  0  0  0  0
   24.3193   17.4499   81.3065 O   0  0  0  0  0  0
   23.7455   16.1726   81.5302 C   0  0  0  0  0  0
   23.6438   17.8597   79.0627 C   0  0  0  0  0  0
   23.9884   18.0748   77.7235 C   0  0  0  0  0  0
   25.3433   18.0866   77.3375 C   0  0  0  0  0  0
   25.6783   18.3037   75.9804 C   0  0  0  0  0  0
   27.0292   18.3165   75.5964 C   0  0  0  0  0  0
   28.0356   18.1155   76.5438 C   0  0  0  0  0  0
   27.6990   17.9017   77.8864 C   0  0  0  0  0  0
   26.3531   17.8847   78.2972 C   0  0  0  0  0  0
   24.6566   18.5300   74.8911 C   0  0  0  0  0  0
   24.6161   20.0348   74.0726 S   0  0  0  0  0  0
   23.8088   17.5514   74.5699 N   0  0  0  0  0  0
   23.9341   16.2452   75.2070 C   0  0  0  0  0  0
   22.7587   17.7442   73.5749 C   0  0  0  0  0  0
   21.4311   18.1671   74.2270 C   0  0  0  0  0  0
   20.9224   17.5357   75.1155 O   0  0  0  0  0  0
   20.8861   19.2886   73.7429 O   0  0  0  0  0  0
   21.3105   19.7543   73.0494 H   0  0  0  0  0  0
  1  2  1  0  0  0
  1  3  1  0  0  0
  1  4  1  0  0  0
  1  5  1  0  0  0
  5  6  2  0  0  0
  5 16  1  0  0  0
  6  7  1  0  0  0
  6  9  1  0  0  0
  7  8  1  0  0  0
  9 10  2  0  0  0
 10 11  1  0  0  0
 11 12  2  0  0  0
 11 16  1  0  0  0
 12 13  1  0  0  0
 12 17  1  0  0  0
 13 14  2  0  0  0
 14 15  1  0  0  0
 15 16  2  0  0  0
 17 18  2  0  0  0
 17 19  1  0  0  0
 19 20  1  0  0  0
 19 21  1  0  0  0
 21 22  1  0  0  0
 22 23  2  0  0  0
 22 24  1  0  0  0
 24 25  1  0  0  0
M  END
>  <CHROM.0>
-60.36287400,-98.43605639,-4.14410527,-175.92552778,-61.84677239,-76.34794585
65.00949069,-121.04360608,-60.06725284,64.30725708,-61.54190337,62.69165755
-61.41326028,-60.50081437,131.40025979

>  <CHROM.1>
-123.66676673,-108.04857403,115.73373023,-93.73708207,-53.72320923,0.40248625
24.97283166,17.92448324,77.44204776,-1.04273881,-0.14348163,-1.30887459

>  <FORMUL>
      TOL    C16 H14 F3 N1 O3 S1

>  <HET>
 TOL  A 320      24

>  <HETNAM>
     TOL TOLRESTAT

>  <Name>
TOL.pdb

>  <RI>
0

>  <Rbt.Current_Directory>
/home/malgorzata/Desktop/rDOCK_IFD/Wyniki/1a_aldose_reductase/IFD

>  <Rbt.Executable>
rbdock ($Id: //depot/dev/client3/rdock/2013.1/src/exe/rbdock.cxx#4 $)

>  <Rbt.Library>
libRbt.so (2013.1, Build901 2013/11/27)

>  <Rbt.Parameter_File>
/home/malgorzata/Desktop/rDock_2013.1_src/data/scripts/hard_docking.prm

>  <Rbt.Receptor>
cavity.prm

>  <SCORE>
-16.1165

>  <SCORE.INTER>
-5.27611

>  <SCORE.INTER.CONST>
1

>  <SCORE.INTER.POLAR>
-1.91803

>  <SCORE.INTER.REPUL>
0

>  <SCORE.INTER.ROT>
5

>  <SCORE.INTER.VDW>
-9.1548

>  <SCORE.INTER.norm>
-0.219838

>  <SCORE.INTRA>
-5.17186

>  <SCORE.INTRA.DIHEDRAL>
2.20428

>  <SCORE.INTRA.DIHEDRAL.0>
16.9783

>  <SCORE.INTRA.POLAR>
0

>  <SCORE.INTRA.POLAR.0>
0

>  <SCORE.INTRA.REPUL>
0

>  <SCORE.INTRA.REPUL.0>
0

>  <SCORE.INTRA.VDW>
-6.27401

>  <SCORE.INTRA.VDW.0>
4.87734

>  <SCORE.INTRA.norm>
-0.215494

>  <SCORE.RESTR>
1.29809

>  <SCORE.RESTR.CAVITY>
1.29809

>  <SCORE.RESTR.norm>
0.0540871

>  <SCORE.SYSTEM>
-6.96659

>  <SCORE.SYSTEM.CONST>
0

>  <SCORE.SYSTEM.DIHEDRAL>
1.98869

>  <SCORE.SYSTEM.POLAR>
-0.588894

>  <SCORE.SYSTEM.REPUL>
0.0437001

>  <SCORE.SYSTEM.VDW>
-6.17719

>  <SCORE.SYSTEM.norm>
-0.290275

>  <SCORE.heavy>
24

>  <SCORE.norm>
-0.67152

$$$$
TOL.pdb
  rDOCK(R)          3D
libRbt.so/2013.1/901 2013/11/27
 25 26  0  0  0  0  0  0  0  0999 V2000
   27.3661   25.0416   77.1978 C   0  0  0  0  0  0
   27.1581   23.7160   76.9971 F   0  0  0  0  0  0
   28.1925   25.4664   76.2054 F   0  0  0  0  0  0
   26.1785   25.6837   77.0364 F   0  0  0  0  0  0
   27.9519   25.3191   78.5992 C   0  0  0  0  0  0
   27.3043   26.1097   79.5840 C   0  0  0  0  0  0
   26.1308   26.6540   79.3177 O   0  0  0  0  0  0
   26.1665   28.0716   79.3153 C   0  0  0  0  0  0
   27.9290   26.3050   80.8353 C   0  0  0  0  0  0
   29.1738   25.7287   81.1125 C   0  0  0  0  0  0
   29.8209   24.9453   80.1366 C   0  0  0  0  0  0
   31.0795   24.3696   80.4287 C   0  0  0  0  0  0
   31.7235   23.5877   79.4558 C   0  0  0  0  0  0
   31.1295   23.3798   78.2089 C   0  0  0  0  0  0
   29.8829   23.9514   77.9246 C   0  0  0  0  0  0
   29.2165   24.7383   78.8822 C   0  0  0  0  0  0
   31.7934   24.5416   81.7488 C   0  0  0  0  0  0
   31.9485   23.2007   82.8043 S   0  0  0  0  0  0
   32.3065   25.7303   82.0699 N   0  0  0  0  0  0
   32.2546   26.8261   81.1085 C   0  0  0  0  0  0
   32.9427   25.9657   83.3621 C   0  0  0  0  0  0
   31.9577   26.5717   84.3765 C   0  0  0  0  0  0
   30.7904   26.2815   84.3900 O   0  0  0  0  0  0
   32.4903   27.4373   85.2463 O   0  0  0  0  0  0
   31.9505   27.8368   85.8997 H   0  0  0  0  0  0
  1  2  1  0  0  0
  1  3  1  0  0  0
  1  4  1  0  0  0
  1  5  1  0  0  0
  5  6  2  0  0  0
  5 16  1  0  0  0
  6  7  1  0  0  0
  6  9  1  0  0  0
  7  8  1  0  0  0
  9 10  2  0  0  0
 10 11  1  0  0  0
 11 12  2  0  0  0
 11 16  1  0  0  0
 12 13  1  0  0  0
 12 17  1  0  0  0
 13 14  2  0  0  0
 14 15  1  0  0  0
 15 16  2  0  0  0
 17 18  2  0  0  0
 17 19  1  0  0  0
 19 20  1  0  0  0
 19 21  1  0  0  0
 21 22  1  0  0  0
 22 23  2  0  0  0
 22 24  1  0  0  0
 24 25  1  0  0  0
M  END
>  <CHROM.0>
-60.64885104,91.41268514,-5.96148744,-176.84587897,59.94379305,-168.89603210
-178.99464261,-121.98874077,-60.06725284,63.64437026,-61.54190337,61.92195694
-61.41326028,-60.50081437,-160.95833291

>  <CHROM.1>
-118.79425596,-116.03372582,110.47551460,-95.09658744,34.42406596,-179.22338106
29.71925993,25.33303458,80.32347617,-2.45190449,-0.58520414,0.93895641

>  <FORMUL>
      TOL    C16 H14 F3 N1 O3 S1

>  <HET>
 TOL  A 320      24

>  <HETNAM>
     TOL TOLRESTAT

>  <Name>
TOL.pdb

>  <RI>
0

>  <Rbt.Current_Directory>
/home/malgorzata/Desktop/rDOCK_IFD/Wyniki/1a_aldose_reductase/IFD

>  <Rbt.Executable>
rbdock ($Id: //depot/dev/client3/rdock/2013.1/src/exe/rbdock.cxx#4 $)

>  <Rbt.Library>
libRbt.so (2013.1, Build901 2013/11/27)

>  <Rbt.Parameter_File>
/home/malgorzata/Desktop/rDock_2013.1_src/data/scripts/hard_docking.prm

>  <Rbt.Receptor>
cavity.prm

>  <SCORE>
-13.0778

>  <SCORE.INTER>
-2.14609

>  <SCORE.INTER.CONST>
1

>  <SCORE.INTER.POLAR>
-0.632456

>  <SCORE.INTER.REPUL>
0

>  <SCORE.INTER.ROT>
5

>  <SCORE.INTER.VDW>
-10.3957

>  <SCORE.INTER.norm>
-0.0894206

>  <SCORE.INTRA>
-5.40084

>  <SCORE.INTRA.DIHEDRAL>
2.56808

>  <SCORE.INTRA.DIHEDRAL.0>
16.9783

>  <SCORE.INTRA.POLAR>
0

>  <SCORE.INTRA.POLAR.0>
0

>  <SCORE.INTRA.REPUL>
0

>  <SCORE.INTRA.REPUL.0>
0

>  <SCORE.INTRA.VDW>
-6.68489

>  <SCORE.INTRA.VDW.0>
4.87734

>  <SCORE.INTRA.norm>
-0.225035

>  <SCORE.RESTR>
1.29157

>  <SCORE.RESTR.CAVITY>
1.29157

>  <SCORE.RESTR.norm>
0.0538156

>  <SCORE.SYSTEM>
-6.82243

>  <SCORE.SYSTEM.CONST>
0

>  <SCORE.SYSTEM.DIHEDRAL>
1.80422

>  <SCORE.SYSTEM.POLAR>
-0.586018

>  <SCORE.SYSTEM.REPUL>
0.0808403

>  <SCORE.SYSTEM.VDW>
-6.13628

>  <SCORE.SYSTEM.norm>
-0.284268

>  <SCORE.heavy>
24

>  <SCORE.norm>
-0.544908

$$$$
TOL.pdb
  rDOCK(R)          3D
libRbt.so/2013.1/901 2013/11/27
 25 26  0  0  0  0  0  0  0  0999 V2000
   23.3657   18.1489   75.7281 C   0  0  0  0  0  0
   22.6163   17.2736   76.4444 F   0  0  0  0  0  0
   23.4832   17.6350   74.4750 F   0  0  0  0  0  0
   22.6698   19.3123   75.6234 F   0  0  0  0  0  0
   24.7409   18.3915   76.3870 C   0  0  0  0  0  0
   25.1584   17.7745   77.5949 C   0  0  0  0  0  0
   24.3467   16.9384   78.2165 O   0  0  0  0  0  0
   23.7241   17.5143   79.3530 C   0  0  0  0  0  0
   26.4376   18.0681   78.1159 C   0  0  0  0  0  0
   27.2936   18.9568   77.4556 C   0  0  0  0  0  0
   26.8818   19.5732   76.2575 C   0  0  0  0  0  0
   27.7559   20.4706   75.6005 C   0  0  0  0  0  0
   27.3452   21.0839   74.4056 C   0  0  0  0  0  0
   26.0844   20.8133   73.8688 C   0  0  0  0  0  0
   25.2229   19.9235   74.5226 C   0  0  0  0  0  0
   25.6104   19.2953   75.7208 C   0  0  0  0  0  0
   29.1347   20.8203   76.1087 C   0  0  0  0  0  0
   30.2738   19.5702   76.3841 S   0  0  0  0  0  0
   29.4532   22.0978   76.3228 N   0  0  0  0  0  0
   28.5025   23.1495   75.9791 C   0  0  0  0  0  0
   30.7465   22.4815   76.8796 C   0  0  0  0  0  0
   30.7440   22.4145   78.4164 C   0  0  0  0  0  0
   30.2108   23.2526   79.0948 O   0  0  0  0  0  0
   31.3689   21.3566   78.9454 O   0  0  0  0  0  0
   31.4044   21.2503   79.8756 H   0  0  0  0  0  0
  1  2  1  0  0  0
  1  3  1  0  0  0
  1  4  1  0  0  0
  1  5  1  0  0  0
  5  6  2  0  0  0
  5 16  1  0  0  0
  6  7  1  0  0  0
  6  9  1  0  0  0
  7  8  1  0  0  0
  9 10  2  0  0  0
 10 11  1  0  0  0
 11 12  2  0  0  0
 11 16  1  0  0  0
 12 13  1  0  0  0
 12 17  1  0  0  0
 13 14  2  0  0  0
 14 15  1  0  0  0
 15 16  2  0  0  0
 17 18  2  0  0  0
 17 19  1  0  0  0
 19 20  1  0  0  0
 19 21  1  0  0  0
 21 22  1  0  0  0
 22 23  2  0  0  0
 22 24  1  0  0  0
 24 25  1  0  0  0
M  END
>  <CHROM.0>
-61.13684229,-95.12715746,-154.37544185,-177.20096103,176.08473564,-81.29301908
-178.84838663,-101.73298073,-60.06725284,179.41673611,-61.54190337,-70.28968965
-61.41326028,-60.50081437,102.34376124

>  <CHROM.1>
-0.20698243,-103.25062522,56.52565365,-84.56564343,-75.93897084,-179.83936022
26.86211755,19.78795195,76.59374429,3.01977999,0.52969413,2.07307221

>  <FORMUL>
      TOL    C16 H14 F3 N1 O3 S1

>  <HET>
 TOL  A 320      24

>  <HETNAM>
     TOL TOLRESTAT

>  <Name>
TOL.pdb

>  <RI>
0

>  <Rbt.Current_Directory>
/home/malgorzata/Desktop/rDOCK_IFD/Wyniki/1a_aldose_reductase/IFD

>  <Rbt.Executable>
rbdock ($Id: //depot/dev/client3/rdock/2013.1/src/exe/rbdock.cxx#4 $)

>  <Rbt.Library>
libRbt.so (2013.1, Build901 2013/11/27)

>  <Rbt.Parameter_File>
/home/malgorzata/Desktop/rDock_2013.1_src/data/scripts/hard_docking.prm

>  <Rbt.Receptor>
cavity.prm

>  <SCORE>
-10.7943

>  <SCORE.INTER>
0.576341

>  <SCORE.INTER.CONST>
1

>  <SCORE.INTER.POLAR>
-0.180869

>  <SCORE.INTER.REPUL>
0

>  <SCORE.INTER.ROT>
5

>  <SCORE.INTER.VDW>
-9.20871

>  <SCORE.INTER.norm>
0.0240142

>  <SCORE.INTRA>
-4.66634

>  <SCORE.INTRA.DIHEDRAL>
0.804608

>  <SCORE.INTRA.DIHEDRAL.0>
16.9783

>  <SCORE.INTRA.POLAR>
0

>  <SCORE.INTRA.POLAR.0>
0

>  <SCORE.INTRA.REPUL>
0

>  <SCORE.INTRA.REPUL.0>
0

>  <SCORE.INTRA.VDW>
-5.06865

>  <SCORE.INTRA.VDW.0>
4.87734

>  <SCORE.INTRA.norm>
-0.194431

>  <SCORE.RESTR>
0.24151

>  <SCORE.RESTR.CAVITY>
0.24151

>  <SCORE.RESTR.norm>
0.0100629

>  <SCORE.SYSTEM>
-6.94584

>  <SCORE.SYSTEM.CONST>
0

>  <SCORE.SYSTEM.DIHEDRAL>
3.17335

>  <SCORE.SYSTEM.POLAR>
-0.814554

>  <SCORE.SYSTEM.REPUL>
0.182456

>  <SCORE.SYSTEM.VDW>
-6.67532

>  <SCORE.SYSTEM.norm>
-0.28941

>  <SCORE.heavy>
24

>  <SCORE.norm>
-0.449764

$$$$
TOL.pdb
  rDOCK(R)          3D
libRbt.so/2013.1/901 2013/11/27
 25 26  0  0  0  0  0  0  0  0999 V2000
   31.1459   28.3954   80.7465 C   0  0  0  0  0  0
   32.3494   28.2166   81.3470 F   0  0  0  0  0  0
   30.3361   28.9985   81.6568 F   0  0  0  0  0  0
   31.3143   29.2669   79.7165 F   0  0  0  0  0  0
   30.5584   27.0595   80.2423 C   0  0  0  0  0  0
   29.3161   26.5285   80.6768 C   0  0  0  0  0  0
   28.5959   27.1914   81.5636 O   0  0  0  0  0  0
   27.2625   27.4161   81.1362 C   0  0  0  0  0  0
   28.8704   25.2943   80.1550 C   0  0  0  0  0  0
   29.6378   24.5937   79.2176 C   0  0  0  0  0  0
   30.8728   25.1164   78.7856 C   0  0  0  0  0  0
   31.6396   24.3978   77.8388 C   0  0  0  0  0  0
   32.8701   24.9200   77.4077 C   0  0  0  0  0  0
   33.3361   26.1376   77.9089 C   0  0  0  0  0  0
   32.5729   26.8457   78.8457 C   0  0  0  0  0  0
   31.3365   26.3448   79.2935 C   0  0  0  0  0  0
   31.2129   23.0761   77.2447 C   0  0  0  0  0  0
   31.0114   21.7172   78.2688 S   0  0  0  0  0  0
   30.9844   22.9868   75.9335 N   0  0  0  0  0  0
   31.0591   24.1825   75.1013 C   0  0  0  0  0  0
   30.6391   21.7175   75.3013 C   0  0  0  0  0  0
   29.1226   21.4616   75.3356 C   0  0  0  0  0  0
   28.3799   21.8904   74.4922 O   0  0  0  0  0  0
   28.6887   20.7236   76.3635 O   0  0  0  0  0  0
   29.3018   20.3655   76.9749 H   0  0  0  0  0  0
  1  2  1  0  0  0
  1  3  1  0  0  0
  1  4  1  0  0  0
  1  5  1  0  0  0
  5  6  2  0  0  0
  5 16  1  0  0  0
  6  7  1  0  0  0
  6  9  1  0  0  0
  7  8  1  0  0  0
  9 10  2  0  0  0
 10 11  1  0  0  0
 11 12  2  0  0  0
 11 16  1  0  0  0
 12 13  1  0  0  0
 12 17  1  0  0  0
 13 14  2  0  0  0
 14 15  1  0  0  0
 15 16  2  0  0  0
 17 18  2  0  0  0
 17 19  1  0  0  0
 19 20  1  0  0  0
 19 21  1  0  0  0
 21 22  1  0  0  0
 22 23  2  0  0  0
 22 24  1  0  0  0
 24 25  1  0  0  0
M  END
>  <CHROM.0>
44.02303737,91.40827232,-4.07698185,-178.01765226,59.94735204,-82.70878100
-179.03506491,-126.60517633,-60.06725284,-179.82597064,-61.54190337,61.72100540
-61.41326028,-60.50081437,119.79139992

>  <CHROM.1>
120.04870076,126.73017772,-62.56220236,87.46402541,85.86050079,-3.12479740
30.54078242,25.11145122,78.57306904,-1.50203073,-0.38893632,-2.44890520

>  <FORMUL>
      TOL    C16 H14 F3 N1 O3 S1

>  <HET>
 TOL  A 320      24

>  <HETNAM>
     TOL TOLRESTAT

>  <Name>
TOL.pdb

>  <RI>
0

>  <Rbt.Current_Directory>
/home/malgorzata/Desktop/rDOCK_IFD/Wyniki/1a_aldose_reductase/IFD

>  <Rbt.Executable>
rbdock ($Id: //depot/dev/client3/rdock/2013.1/src/exe/rbdock.cxx#4 $)

>  <Rbt.Library>
libRbt.so (2013.1, Build901 2013/11/27)

>  <Rbt.Parameter_File>
/home/malgorzata/Desktop/rDock_2013.1_src/data/scripts/hard_docking.prm

>  <Rbt.Receptor>
cavity.prm

>  <SCORE>
-16.0472

>  <SCORE.INTER>
-5.06141

>  <SCORE.INTER.CONST>
1

>  <SCORE.INTER.POLAR>
-0.588797

>  <SCORE.INTER.REPUL>
0

>  <SCORE.INTER.ROT>
5

>  <SCORE.INTER.VDW>
-13.4595

>  <SCORE.INTER.norm>
-0.210892

>  <SCORE.INTRA>
-5.20169

>  <SCORE.INTRA.DIHEDRAL>
0.846872

>  <SCORE.INTRA.DIHEDRAL.0>
16.9783

>  <SCORE.INTRA.POLAR>
-0.264957

>  <SCORE.INTRA.POLAR.0>
0

>  <SCORE.INTRA.REPUL>
0

>  <SCORE.INTRA.REPUL.0>
0

>  <SCORE.INTRA.VDW>
-4.72427

>  <SCORE.INTRA.VDW.0>
4.87734

>  <SCORE.INTRA.norm>
-0.216737

>  <SCORE.RESTR>
0

>  <SCORE.RESTR.CAVITY>
0

>  <SCORE.RESTR.norm>
0

>  <SCORE.SYSTEM>
-5.78406

>  <SCORE.SYSTEM.CONST>
0

>  <SCORE.SYSTEM.DIHEDRAL>
2.87989

>  <SCORE.SYSTEM.POLAR>
-0.497645

>  <SCORE.SYSTEM.REPUL>
0.172579

>  <SCORE.SYSTEM.VDW>
-6.39491

>  <SCORE.SYSTEM.norm>
-0.241003

>  <SCORE.heavy>
24

>  <SCORE.norm>
-0.668632

$$$$
TOL.pdb
  rDOCK(R)          3D
libRbt.so/2013.1/901 2013/11/27
 25 26  0  0  0  0  0  0  0  0999 V2000
   30.5980   21.2686   76.8935 C   0  0  0  0  0  0
   31.9415   21.1752   76.7289 F   0  0  0  0  0  0
   30.0415   21.1822   75.6562 F   0  0  0  0  0  0
   30.1835   20.1827   77.5991 F   0  0  0  0  0  0
   30.2036   22.5742   77.6173 C   0  0  0  0  0  0
   29.4095   23.5939   77.0310 C   0  0  0  0  0  0
   28.9660   23.4482   75.7955 O   0  0  0  0  0  0
   29.8102   24.0533   74.8300 C   0  0  0  0  0  0
   29.1086   24.7531   77.7793 C   0  0  0  0  0  0
   29.5828   24.9048   79.0872 C   0  0  0  0  0  0
   30.3734   23.8958   79.6718 C   0  0  0  0  0  0
   30.8477   24.0620   80.9941 C   0  0  0  0  0  0
   31.6349   23.0552   81.5767 C   0  0  0  0  0  0
   31.9496   21.8993   80.8587 C   0  0  0  0  0  0
   31.4770   21.7390   79.5501 C   0  0  0  0  0  0
   30.6861   22.7324   78.9435 C   0  0  0  0  0  0
   30.5559   25.2774   81.8423 C   0  0  0  0  0  0
   28.9670   25.5332   82.4306 S   0  0  0  0  0  0
   31.5409   26.1281   82.1348 N   0  0  0  0  0  0
   32.9050   25.8312   81.7119 C   0  0  0  0  0  0
   31.2959   27.3524   82.8905 C   0  0  0  0  0  0
   31.1689   28.5740   81.9643 C   0  0  0  0  0  0
   30.1221   28.8968   81.4674 O   0  0  0  0  0  0
   32.3007   29.2559   81.7560 O   0  0  0  0  0  0
   33.0968   28.9785   82.1649 H   0  0  0  0  0  0
  1  2  1  0  0  0
  1  3  1  0  0  0
  1  4  1  0  0  0
  1  5  1  0  0  0
  5  6  2  0  0  0
  5 16  1  0  0  0
  6  7  1  0  0  0
  6  9  1  0  0  0
  7  8  1  0  0  0
  9 10  2  0  0  0
 10 11  1  0  0  0
 11 12  2  0  0  0
 11 16  1  0  0  0
 12 13  1  0  0  0
 12 17  1  0  0  0
 13 14  2  0  0  0
 14 15  1  0  0  0
 15 16  2  0  0  0
 17 18  2  0  0  0
 17 19  1  0  0  0
 19 20  1  0  0  0
 19 21  1  0  0  0
 21 22  1  0  0  0
 22 23  2  0  0  0
 22 24  1  0  0  0
 24 25  1  0  0  0
M  END
>  <CHROM.0>
-60.89809568,-97.42911888,-1.72379929,15.55195054,178.05928012,70.21562015
-179.33936703,-112.99958381,-60.06725284,179.10633510,-61.54190337,-70.73796801
-61.41326028,-60.50081437,146.74021618

>  <CHROM.1>
116.81758838,-94.43071072,70.20126703,-98.73692392,87.14092995,-0.09634467
30.58483984,24.23918490,79.48811099,-1.80773319,-1.17415136,0.56577947

>  <FORMUL>
      TOL    C16 H14 F3 N1 O3 S1

>  <HET>
 TOL  A 320      24

>  <HETNAM>
     TOL TOLRESTAT

>  <Name>
TOL.pdb

>  <RI>
0

>  <Rbt.Current_Directory>
/home/malgorzata/Desktop/rDOCK_IFD/Wyniki/1a_aldose_reductase/IFD

>  <Rbt.Executable>
rbdock ($Id: //depot/dev/client3/rdock/2013.1/src/exe/rbdock.cxx#4 $)

>  <Rbt.Library>
libRbt.so (2013.1, Build901 2013/11/27)

>  <Rbt.Parameter_File>
/home/malgorzata/Desktop/rDock_2013.1_src/data/scripts/hard_docking.prm

>  <Rbt.Receptor>
cavity.prm

>  <SCORE>
-17.4292

>  <SCORE.INTER>
-6.52077

>  <SCORE.INTER.CONST>
1

>  <SCORE.INTER.POLAR>
-0.680284

>  <SCORE.INTER.REPUL>
0

>  <SCORE.INTER.ROT>
5

>  <SCORE.INTER.VDW>
-14.6078

>  <SCORE.INTER.norm>
-0.271699

>  <SCORE.INTRA>
-4.79759

>  <SCORE.INTRA.DIHEDRAL>
3.49303

>  <SCORE.INTRA.DIHEDRAL.0>
16.9783

>  <SCORE.INTRA.POLAR>
0

>  <SCORE.INTRA.POLAR.0>
0

>  <SCORE.INTRA.REPUL>
0

>  <SCORE.INTRA.REPUL.0>
0

>  <SCORE.INTRA.VDW>
-6.5441

>  <SCORE.INTRA.VDW.0>
4.87734

>  <SCORE.INTRA.norm>
-0.199899

>  <SCORE.RESTR>
0.0554892

>  <SCORE.RESTR.CAVITY>
0.0554892

>  <SCORE.RESTR.norm>
0.00231205

>  <SCORE.SYSTEM>
-6.16635

>  <SCORE.SYSTEM.CONST>
0

>  <SCORE.SYSTEM.DIHEDRAL>
2.60916

>  <SCORE.SYSTEM.POLAR>
-0.588911

>  <SCORE.SYSTEM.REPUL>
0.220563

>  <SCORE.SYSTEM.VDW>
-6.57145

>  <SCORE.SYSTEM.norm>
-0.256931

>  <SCORE.heavy>
24

>  <SCORE.norm>
-0.726217

$$$$
