REMARK  10 active torsions:
REMARK  status: ('A' for Active; 'I' for Inactive)
REMARK    1  A    between atoms: C1C_1  and  C1_13 
REMARK    2  A    between atoms: C4P_8  and  N1_11 
REMARK    3  A    between atoms: N1_11  and  C4_16 
REMARK    4  A    between atoms: C1_13  and  C2_14 
REMARK    5  A    between atoms: C1_13  and  C4D_27 
REMARK    6  A    between atoms: C2_14  and  C3_15 
REMARK    7  A    between atoms: C3_15  and  C4_16 
REMARK    8  A    between atoms: N1A_17  and  C1A_23 
REMARK    9  A    between atoms: C1A_23  and  C5B_34 
REMARK   10  A    between atoms: C6D_29  and  C3B_32 
ROOT
HETATM    1  C1D 4PP C 500       5.518   3.030  20.137  1.00 12.29     0.012 A 
HETATM    2  C2D 4PP C 500       5.851   2.532  21.427  1.00 13.77     0.001 A 
HETATM    3  C3D 4PP C 500       5.015   2.824  22.535  1.00 14.22     0.008 A 
HETATM    4  C4D 4PP C 500       3.841   3.616  22.365  1.00 13.69    -0.043 A 
HETATM    5  C5D 4PP C 500       3.501   4.122  21.068  1.00 13.12     0.020 A 
HETATM    6  C6D 4PP C 500       4.340   3.829  19.949  1.00 11.05    -0.025 A 
ENDROOT
BRANCH   4   7
HETATM    7  C1  4PP C 500       2.962   3.912  23.591  1.00 14.14     0.120 C 
BRANCH   7   8
HETATM    8  C1C 4PP C 500       2.105   2.674  23.923  1.00 16.45     0.181 C 
HETATM    9  O2  4PP C 500       2.665   1.581  24.087  1.00 16.98    -0.647 OA
HETATM   10  O3  4PP C 500       0.746   2.777  24.044  1.00 14.33    -0.647 OA
ENDBRANCH   7   8
BRANCH   7  11
HETATM   11  C2  4PP C 500       3.812   4.329  24.793  1.00 11.71     0.022 C 
BRANCH  11  12
HETATM   12  C3  4PP C 500       3.061   5.441  25.519  1.00 13.55     0.021 C 
BRANCH  12  13
HETATM   13  C4  4PP C 500       3.219   6.750  24.753  1.00 13.06     0.120 C 
BRANCH  13  14
HETATM   14  N1  4PP C 500       4.648   6.927  24.416  1.00 11.92    -0.390 N 
ATOM     15  H1  4PP C 500       5.396   6.933  25.110  1.00  0.00     0.159 HD
BRANCH  14  16
HETATM   16  C4P 4PP C 500       4.879   7.098  22.957  1.00 10.26     0.030 A 
HETATM   17  C3P 4PP C 500       3.886   7.748  22.194  1.00 10.63     0.046 A 
HETATM   18  C2P 4PP C 500       4.062   7.929  20.807  1.00 10.60     0.089 A 
HETATM   19  N1P 4PP C 500       5.236   7.460  20.186  1.00 11.75    -0.375 N 
HETATM   20  C6P 4PP C 500       6.235   6.810  20.945  1.00 11.13     0.089 A 
ATOM     21  H1P 4PP C 500       5.365   7.589  19.182  1.00  0.00     0.164 HD
HETATM   22  C5P 4PP C 500       6.064   6.627  22.325  1.00  9.10     0.046 A 
ENDBRANCH  14  16
ENDBRANCH  13  14
ENDBRANCH  12  13
ENDBRANCH  11  12
ENDBRANCH   7  11
ENDBRANCH   4   7
BRANCH   6  23
HETATM   23  C3B 4PP C 500       3.978   4.365  18.536  1.00  8.69    -0.025 A 
HETATM   24  C2B 4PP C 500       4.231   3.592  17.358  1.00  6.81     0.012 A 
HETATM   25  C1B 4PP C 500       3.889   4.117  16.078  1.00  6.12     0.002 A 
HETATM   26  C6B 4PP C 500       3.294   5.410  15.972  1.00  4.68     0.015 A 
HETATM   27  C5B 4PP C 500       3.042   6.174  17.146  1.00  5.27     0.008 A 
HETATM   28  C4B 4PP C 500       3.387   5.650  18.416  1.00  7.64     0.027 A 
BRANCH  27  29
HETATM   29  C1A 4PP C 500       2.400   7.572  17.066  1.00  4.15     0.102 C 
HETATM   30  N2A 4PP C 500       1.964   8.143  18.171  1.00  2.00    -0.385 N 
ATOM     31 2H2A 4PP C 500       1.539   9.069  18.119  1.00  0.00     0.157 HD
ATOM     32 1H2A 4PP C 500       2.048   7.658  19.065  1.00  0.00     0.157 HD
BRANCH  29  33
HETATM   33  N1A 4PP C 500       2.292   8.200  15.910  1.00  3.52    -0.385 N 
ATOM     34 2H1A 4PP C 500       1.463   8.079  15.328  1.00  0.00     0.157 HD
ATOM     35 1H1A 4PP C 500       3.043   8.809  15.586  1.00  0.00     0.157 HD
ENDBRANCH  29  33
ENDBRANCH  27  29
ENDBRANCH   6  23
TORSDOF 10
