REMARK  10 active torsions:
REMARK  status: ('A' for Active; 'I' for Inactive)
REMARK    1  A    between atoms: C1C_1  and  C1_13 
REMARK    2  A    between atoms: C4P_8  and  N1_11 
REMARK    3  A    between atoms: N1_11  and  C4_16 
REMARK    4  A    between atoms: C1_13  and  C2_14 
REMARK    5  A    between atoms: C1_13  and  C4D_27 
REMARK    6  A    between atoms: C2_14  and  C3_15 
REMARK    7  A    between atoms: C3_15  and  C4_16 
REMARK    8  A    between atoms: N1A_17  and  C1A_23 
REMARK    9  A    between atoms: C1A_23  and  C5B_34 
REMARK   10  A    between atoms: C6D_29  and  C3B_32 
ROOT
HETATM    1  C1D 4PP C 500       6.429   6.730  21.804  1.00 12.29     0.012 A 
HETATM    2  C2D 4PP C 500       6.573   8.133  21.991  1.00 13.77     0.001 A 
HETATM    3  C3D 4PP C 500       6.100   9.031  21.000  1.00 14.22     0.008 A 
HETATM    4  C4D 4PP C 500       5.481   8.537  19.815  1.00 13.69    -0.043 A 
HETATM    5  C5D 4PP C 500       5.334   7.124  19.620  1.00 13.12     0.020 A 
HETATM    6  C6D 4PP C 500       5.808   6.217  20.615  1.00 11.05    -0.025 A 
ENDROOT
BRANCH   4   7
HETATM    7  C1  4PP C 500       4.983   9.542  18.764  1.00 14.14     0.120 C 
BRANCH   7   8
HETATM    8  C1C 4PP C 500       6.190  10.175  18.043  1.00 16.45     0.181 C 
HETATM    9  O2  4PP C 500       7.172   9.468  17.778  1.00 16.98    -0.647 OA
HETATM   10  O3  4PP C 500       6.179  11.498  17.691  1.00 14.33    -0.647 OA
ENDBRANCH   7   8
BRANCH   7  11
HETATM   11  C2  4PP C 500       4.037   8.873  17.764  1.00 11.71     0.022 C 
BRANCH  11  12
HETATM   12  C3  4PP C 500       2.783   9.738  17.674  1.00 13.55     0.021 C 
BRANCH  12  13
HETATM   13  C4  4PP C 500       1.880   9.457  18.870  1.00 13.06     0.120 C 
BRANCH  13  14
HETATM   14  N1  4PP C 500       1.533   8.019  18.869  1.00 11.92    -0.390 N 
ATOM     15  H1  4PP C 500       1.031   7.560  18.110  1.00  0.00     0.159 HD
BRANCH  14  16
HETATM   16  C4P 4PP C 500       1.995   7.315  20.095  1.00 10.26     0.030 A 
HETATM   17  C3P 4PP C 500       2.362   8.091  21.214  1.00 10.63     0.046 A 
HETATM   18  C2P 4PP C 500       2.807   7.466  22.397  1.00 10.60     0.089 A 
HETATM   19  N1P 4PP C 500       2.883   6.060  22.456  1.00 11.75    -0.375 N 
HETATM   20  C6P 4PP C 500       2.513   5.278  21.339  1.00 11.13     0.089 A 
ATOM     21  H1P 4PP C 500       3.205   5.605  23.310  1.00  0.00     0.164 HD
HETATM   22  C5P 4PP C 500       2.071   5.896  20.160  1.00  9.10     0.046 A 
ENDBRANCH  14  16
ENDBRANCH  13  14
ENDBRANCH  12  13
ENDBRANCH  11  12
ENDBRANCH   7  11
ENDBRANCH   4   7
BRANCH   6  23
HETATM   23  C3B 4PP C 500       5.648   4.684  20.419  1.00  8.69    -0.025 A 
HETATM   24  C2B 4PP C 500       6.083   3.755  21.418  1.00  6.81     0.012 A 
HETATM   25  C1B 4PP C 500       5.923   2.355  21.203  1.00  6.12     0.002 A 
HETATM   26  C6B 4PP C 500       5.329   1.881  19.994  1.00  4.68     0.015 A 
HETATM   27  C5B 4PP C 500       4.898   2.808  19.004  1.00  5.27     0.008 A 
HETATM   28  C4B 4PP C 500       5.061   4.199  19.221  1.00  7.64     0.027 A 
BRANCH  27  29
HETATM   29  C1A 4PP C 500       4.252   2.331  17.690  1.00  4.15     0.102 C 
HETATM   30  N2A 4PP C 500       4.507   1.113  17.253  1.00  2.00    -0.385 N 
ATOM     31 2H2A 4PP C 500       4.080   0.797  16.383  1.00  0.00     0.157 HD
ATOM     32 1H2A 4PP C 500       5.130   0.502  17.781  1.00  0.00     0.157 HD
BRANCH  29  33
HETATM   33  N1A 4PP C 500       3.446   3.123  17.007  1.00  3.52    -0.385 N 
ATOM     34 2H1A 4PP C 500       2.548   3.411  17.395  1.00  0.00     0.157 HD
ATOM     35 1H1A 4PP C 500       3.716   3.450  16.079  1.00  0.00     0.157 HD
ENDBRANCH  29  33
ENDBRANCH  27  29
ENDBRANCH   6  23
TORSDOF 10
