REMARK  10 active torsions:
REMARK  status: ('A' for Active; 'I' for Inactive)
REMARK    1  A    between atoms: C1C_1  and  C1_13 
REMARK    2  A    between atoms: C4P_8  and  N1_11 
REMARK    3  A    between atoms: N1_11  and  C4_16 
REMARK    4  A    between atoms: C1_13  and  C2_14 
REMARK    5  A    between atoms: C1_13  and  C4D_27 
REMARK    6  A    between atoms: C2_14  and  C3_15 
REMARK    7  A    between atoms: C3_15  and  C4_16 
REMARK    8  A    between atoms: N1A_17  and  C1A_23 
REMARK    9  A    between atoms: C1A_23  and  C5B_34 
REMARK   10  A    between atoms: C6D_29  and  C3B_32 
ROOT
HETATM    1  C1D 4PP C 500       6.515   4.188  20.608  1.00 12.29     0.012 A 
HETATM    2  C2D 4PP C 500       6.455   2.823  21.003  1.00 13.77     0.001 A 
HETATM    3  C3D 4PP C 500       5.529   2.415  21.997  1.00 14.22     0.008 A 
HETATM    4  C4D 4PP C 500       4.658   3.365  22.606  1.00 13.69    -0.043 A 
HETATM    5  C5D 4PP C 500       4.715   4.742  22.213  1.00 13.12     0.020 A 
HETATM    6  C6D 4PP C 500       5.645   5.157  21.212  1.00 11.05    -0.025 A 
ENDROOT
BRANCH   4   7
HETATM    7  C1  4PP C 500       3.670   2.884  23.681  1.00 14.14     0.120 C 
BRANCH   7   8
HETATM    8  C1C 4PP C 500       3.378   4.034  24.665  1.00 16.45     0.181 C 
HETATM    9  O2  4PP C 500       4.207   4.297  25.547  1.00 16.98    -0.647 OA
HETATM   10  O3  4PP C 500       2.224   4.764  24.564  1.00 14.33    -0.647 OA
ENDBRANCH   7   8
BRANCH   7  11
HETATM   11  C2  4PP C 500       2.377   2.361  23.050  1.00 11.71     0.022 C 
BRANCH  11  12
HETATM   12  C3  4PP C 500       2.521   2.497  21.537  1.00 13.55     0.021 C 
BRANCH  12  13
HETATM   13  C4  4PP C 500       1.424   3.407  20.997  1.00 13.06     0.120 C 
BRANCH  13  14
HETATM   14  N1  4PP C 500       1.251   4.539  21.933  1.00 11.92    -0.390 N 
ATOM     15  H1  4PP C 500       0.997   4.427  22.914  1.00  0.00     0.159 HD
BRANCH  14  16
HETATM   16  C4P 4PP C 500       1.485   5.859  21.289  1.00 10.26     0.030 A 
HETATM   17  C3P 4PP C 500       1.018   6.054  19.973  1.00 10.63     0.046 A 
HETATM   18  C2P 4PP C 500       1.220   7.289  19.323  1.00 10.60     0.089 A 
HETATM   19  N1P 4PP C 500       1.891   8.329  19.996  1.00 11.75    -0.375 N 
HETATM   20  C6P 4PP C 500       2.358   8.141  21.316  1.00 11.13     0.089 A 
ATOM     21  H1P 4PP C 500       2.039   9.223  19.528  1.00  0.00     0.164 HD
HETATM   22  C5P 4PP C 500       2.160   6.914  21.966  1.00  9.10     0.046 A 
ENDBRANCH  14  16
ENDBRANCH  13  14
ENDBRANCH  12  13
ENDBRANCH  11  12
ENDBRANCH   7  11
ENDBRANCH   4   7
BRANCH   6  23
HETATM   23  C3B 4PP C 500       5.711   6.646  20.772  1.00  8.69    -0.025 A 
HETATM   24  C2B 4PP C 500       6.459   7.612  21.518  1.00  6.81     0.012 A 
HETATM   25  C1B 4PP C 500       6.495   8.970  21.087  1.00  6.12     0.002 A 
HETATM   26  C6B 4PP C 500       5.786   9.365  19.912  1.00  4.68     0.015 A 
HETATM   27  C5B 4PP C 500       5.045   8.401  19.172  1.00  5.27     0.008 A 
HETATM   28  C4B 4PP C 500       5.010   7.053  19.606  1.00  7.64     0.027 A 
BRANCH  27  29
HETATM   29  C1A 4PP C 500       4.271   8.794  17.899  1.00  4.15     0.102 C 
HETATM   30  N2A 4PP C 500       3.893  10.047  17.738  1.00  2.00    -0.385 N 
ATOM     31 2H2A 4PP C 500       3.381  10.307  16.895  1.00  0.00     0.157 HD
ATOM     32 1H2A 4PP C 500       4.108  10.742  18.452  1.00  0.00     0.157 HD
BRANCH  29  33
HETATM   33  N1A 4PP C 500       3.992   7.894  16.975  1.00  3.52    -0.385 N 
ATOM     34 2H1A 4PP C 500       3.590   6.992  17.230  1.00  0.00     0.157 HD
ATOM     35 1H1A 4PP C 500       4.183   8.094  15.993  1.00  0.00     0.157 HD
ENDBRANCH  29  33
ENDBRANCH  27  29
ENDBRANCH   6  23
TORSDOF 10
