REMARK  10 active torsions:
REMARK  status: ('A' for Active; 'I' for Inactive)
REMARK    1  A    between atoms: C1C_1  and  C1_13 
REMARK    2  A    between atoms: C4P_8  and  N1_11 
REMARK    3  A    between atoms: N1_11  and  C4_16 
REMARK    4  A    between atoms: C1_13  and  C2_14 
REMARK    5  A    between atoms: C1_13  and  C4D_27 
REMARK    6  A    between atoms: C2_14  and  C3_15 
REMARK    7  A    between atoms: C3_15  and  C4_16 
REMARK    8  A    between atoms: N1A_17  and  C1A_23 
REMARK    9  A    between atoms: C1A_23  and  C5B_34 
REMARK   10  A    between atoms: C6D_29  and  C3B_32 
ROOT
HETATM    1  C1D 4PP C 500       6.536   6.665  22.312  1.00 12.29     0.012 A 
HETATM    2  C2D 4PP C 500       6.805   8.055  22.447  1.00 13.77     0.001 A 
HETATM    3  C3D 4PP C 500       6.407   8.955  21.424  1.00 14.22     0.008 A 
HETATM    4  C4D 4PP C 500       5.740   8.475  20.260  1.00 13.69    -0.043 A 
HETATM    5  C5D 4PP C 500       5.467   7.075  20.117  1.00 13.12     0.020 A 
HETATM    6  C6D 4PP C 500       5.865   6.166  21.145  1.00 11.05    -0.025 A 
ENDROOT
BRANCH   4   7
HETATM    7  C1  4PP C 500       5.327   9.481  19.173  1.00 14.14     0.120 C 
BRANCH   7   8
HETATM    8  C1C 4PP C 500       6.587  10.118  18.554  1.00 16.45     0.181 C 
HETATM    9  O2  4PP C 500       7.029   9.665  17.488  1.00 16.98    -0.647 OA
HETATM   10  O3  4PP C 500       7.208  11.174  19.163  1.00 14.33    -0.647 OA
ENDBRANCH   7   8
BRANCH   7  11
HETATM   11  C2  4PP C 500       4.465   8.812  18.099  1.00 11.71     0.022 C 
BRANCH  11  12
HETATM   12  C3  4PP C 500       3.137   8.437  18.748  1.00 13.55     0.021 C 
BRANCH  12  13
HETATM   13  C4  4PP C 500       2.618   9.612  19.570  1.00 13.06     0.120 C 
BRANCH  13  14
HETATM   14  N1  4PP C 500       1.535   9.126  20.453  1.00 11.92    -0.390 N 
ATOM     15  H1  4PP C 500       0.697   9.665  20.667  1.00  0.00     0.159 HD
BRANCH  14  16
HETATM   16  C4P 4PP C 500       1.801   7.767  20.995  1.00 10.26     0.030 A 
HETATM   17  C3P 4PP C 500       2.614   7.652  22.142  1.00 10.63     0.046 A 
HETATM   18  C2P 4PP C 500       2.894   6.383  22.690  1.00 10.60     0.089 A 
HETATM   19  N1P 4PP C 500       2.356   5.229  22.086  1.00 11.75    -0.375 N 
HETATM   20  C6P 4PP C 500       1.538   5.339  20.938  1.00 11.13     0.089 A 
ATOM     21  H1P 4PP C 500       2.557   4.310  22.480  1.00  0.00     0.164 HD
HETATM   22  C5P 4PP C 500       1.258   6.599  20.390  1.00  9.10     0.046 A 
ENDBRANCH  14  16
ENDBRANCH  13  14
ENDBRANCH  12  13
ENDBRANCH  11  12
ENDBRANCH   7  11
ENDBRANCH   4   7
BRANCH   6  23
HETATM   23  C3B 4PP C 500       5.568   4.647  21.005  1.00  8.69    -0.025 A 
HETATM   24  C2B 4PP C 500       5.353   3.821  22.155  1.00  6.81     0.012 A 
HETATM   25  C1B 4PP C 500       5.086   2.430  21.990  1.00  6.12     0.002 A 
HETATM   26  C6B 4PP C 500       5.033   1.864  20.681  1.00  4.68     0.015 A 
HETATM   27  C5B 4PP C 500       5.247   2.689  19.541  1.00  5.27     0.008 A 
HETATM   28  C4B 4PP C 500       5.514   4.070  19.710  1.00  7.64     0.027 A 
BRANCH  27  29
HETATM   29  C1A 4PP C 500       5.195   2.110  18.114  1.00  4.15     0.102 C 
HETATM   30  N2A 4PP C 500       6.087   1.208  17.754  1.00  2.00    -0.385 N 
ATOM     31 2H2A 4PP C 500       6.052   0.824  16.810  1.00  0.00     0.157 HD
ATOM     32 1H2A 4PP C 500       6.803   0.906  18.414  1.00  0.00     0.157 HD
BRANCH  29  33
HETATM   33  N1A 4PP C 500       4.268   2.501  17.261  1.00  3.52    -0.385 N 
ATOM     34 2H1A 4PP C 500       4.350   3.395  16.775  1.00  0.00     0.157 HD
ATOM     35 1H1A 4PP C 500       3.454   1.912  17.083  1.00  0.00     0.157 HD
ENDBRANCH  29  33
ENDBRANCH  27  29
ENDBRANCH   6  23
TORSDOF 10
