REMARK  10 active torsions:
REMARK  status: ('A' for Active; 'I' for Inactive)
REMARK    1  A    between atoms: C1C_1  and  C1_13 
REMARK    2  A    between atoms: C4P_8  and  N1_11 
REMARK    3  A    between atoms: N1_11  and  C4_16 
REMARK    4  A    between atoms: C1_13  and  C2_14 
REMARK    5  A    between atoms: C1_13  and  C4D_27 
REMARK    6  A    between atoms: C2_14  and  C3_15 
REMARK    7  A    between atoms: C3_15  and  C4_16 
REMARK    8  A    between atoms: N1A_17  and  C1A_23 
REMARK    9  A    between atoms: C1A_23  and  C5B_34 
REMARK   10  A    between atoms: C6D_29  and  C3B_32 
ROOT
HETATM    1  C1D 4PP C 500       6.723   4.278  20.839  1.00 12.29     0.012 A 
HETATM    2  C2D 4PP C 500       6.341   2.909  20.865  1.00 13.77     0.001 A 
HETATM    3  C3D 4PP C 500       5.198   2.507  21.604  1.00 14.22     0.008 A 
HETATM    4  C4D 4PP C 500       4.429   3.469  22.323  1.00 13.69    -0.043 A 
HETATM    5  C5D 4PP C 500       4.810   4.850  22.302  1.00 13.12     0.020 A 
HETATM    6  C6D 4PP C 500       5.959   5.259  21.558  1.00 11.05    -0.025 A 
ENDROOT
BRANCH   4   7
HETATM    7  C1  4PP C 500       3.199   2.994  23.113  1.00 14.14     0.120 C 
BRANCH   7   8
HETATM    8  C1C 4PP C 500       3.141   3.729  24.467  1.00 16.45     0.181 C 
HETATM    9  O2  4PP C 500       2.450   4.752  24.567  1.00 16.98    -0.647 OA
HETATM   10  O3  4PP C 500       3.833   3.257  25.549  1.00 14.33    -0.647 OA
ENDBRANCH   7   8
BRANCH   7  11
HETATM   11  C2  4PP C 500       1.911   3.212  22.315  1.00 11.71     0.022 C 
BRANCH  11  12
HETATM   12  C3  4PP C 500       2.122   4.442  21.437  1.00 13.55     0.021 C 
BRANCH  12  13
HETATM   13  C4  4PP C 500       0.941   5.393  21.595  1.00 13.06     0.120 C 
BRANCH  13  14
HETATM   14  N1  4PP C 500       1.450   6.781  21.575  1.00 11.92    -0.390 N 
ATOM     15  H1  4PP C 500       1.465   7.365  20.739  1.00  0.00     0.159 HD
BRANCH  14  16
HETATM   16  C4P 4PP C 500       1.938   7.236  22.904  1.00 10.26     0.030 A 
HETATM   17  C3P 4PP C 500       0.996   7.409  23.939  1.00 10.63     0.046 A 
HETATM   18  C2P 4PP C 500       1.414   7.840  25.215  1.00 10.60     0.089 A 
HETATM   19  N1P 4PP C 500       2.779   8.095  25.452  1.00 11.75    -0.375 N 
HETATM   20  C6P 4PP C 500       3.728   7.921  24.419  1.00 11.13     0.089 A 
ATOM     21  H1P 4PP C 500       3.084   8.408  26.374  1.00  0.00     0.164 HD
HETATM   22  C5P 4PP C 500       3.316   7.493  23.149  1.00  9.10     0.046 A 
ENDBRANCH  14  16
ENDBRANCH  13  14
ENDBRANCH  12  13
ENDBRANCH  11  12
ENDBRANCH   7  11
ENDBRANCH   4   7
BRANCH   6  23
HETATM   23  C3B 4PP C 500       6.378   6.755  21.521  1.00  8.69    -0.025 A 
HETATM   24  C2B 4PP C 500       7.048   7.369  22.627  1.00  6.81     0.012 A 
HETATM   25  C1B 4PP C 500       7.415   8.745  22.559  1.00  6.12     0.002 A 
HETATM   26  C6B 4PP C 500       7.115   9.507  21.390  1.00  4.68     0.015 A 
HETATM   27  C5B 4PP C 500       6.450   8.892  20.292  1.00  5.27     0.008 A 
HETATM   28  C4B 4PP C 500       6.085   7.525  20.365  1.00  7.64     0.027 A 
BRANCH  27  29
HETATM   29  C1A 4PP C 500       6.112   9.686  19.016  1.00  4.15     0.102 C 
HETATM   30  N2A 4PP C 500       5.410  10.796  19.116  1.00  2.00    -0.385 N 
ATOM     31 2H2A 4PP C 500       5.187  11.322  18.271  1.00  0.00     0.157 HD
ATOM     32 1H2A 4PP C 500       5.091  11.119  20.030  1.00  0.00     0.157 HD
BRANCH  29  33
HETATM   33  N1A 4PP C 500       6.525   9.268  17.833  1.00  3.52    -0.385 N 
ATOM     34 2H1A 4PP C 500       5.856   8.969  17.124  1.00  0.00     0.157 HD
ATOM     35 1H1A 4PP C 500       7.522   9.237  17.622  1.00  0.00     0.157 HD
ENDBRANCH  29  33
ENDBRANCH  27  29
ENDBRANCH   6  23
TORSDOF 10
