REMARK  10 active torsions:
REMARK  status: ('A' for Active; 'I' for Inactive)
REMARK    1  A    between atoms: C1C_1  and  C1_13 
REMARK    2  A    between atoms: C4P_8  and  N1_11 
REMARK    3  A    between atoms: N1_11  and  C4_16 
REMARK    4  A    between atoms: C1_13  and  C2_14 
REMARK    5  A    between atoms: C1_13  and  C4D_27 
REMARK    6  A    between atoms: C2_14  and  C3_15 
REMARK    7  A    between atoms: C3_15  and  C4_16 
REMARK    8  A    between atoms: N1A_17  and  C1A_23 
REMARK    9  A    between atoms: C1A_23  and  C5B_34 
REMARK   10  A    between atoms: C6D_29  and  C3B_32 
ROOT
HETATM    1  C1D 4PP C 500       7.230   7.582  20.630  1.00 12.29     0.012 A 
HETATM    2  C2D 4PP C 500       6.452   7.206  19.501  1.00 13.77     0.001 A 
HETATM    3  C3D 4PP C 500       5.176   6.613  19.686  1.00 14.22     0.008 A 
HETATM    4  C4D 4PP C 500       4.668   6.390  20.999  1.00 13.69    -0.043 A 
HETATM    5  C5D 4PP C 500       5.448   6.765  22.142  1.00 13.12     0.020 A 
HETATM    6  C6D 4PP C 500       6.733   7.363  21.959  1.00 11.05    -0.025 A 
ENDROOT
BRANCH   4   7
HETATM    7  C1  4PP C 500       3.283   5.743  21.159  1.00 14.14     0.120 C 
BRANCH   7   8
HETATM    8  C1C 4PP C 500       3.149   4.561  20.178  1.00 16.45     0.181 C 
HETATM    9  O2  4PP C 500       2.936   4.794  18.980  1.00 16.98    -0.647 OA
HETATM   10  O3  4PP C 500       3.273   3.271  20.618  1.00 14.33    -0.647 OA
ENDBRANCH   7   8
BRANCH   7  11
HETATM   11  C2  4PP C 500       3.048   5.288  22.601  1.00 11.71     0.022 C 
BRANCH  11  12
HETATM   12  C3  4PP C 500       1.586   4.866  22.714  1.00 13.55     0.021 C 
BRANCH  12  13
HETATM   13  C4  4PP C 500       0.949   5.543  23.922  1.00 13.06     0.120 C 
BRANCH  13  14
HETATM   14  N1  4PP C 500       1.937   5.565  25.023  1.00 11.92    -0.390 N 
ATOM     15  H1  4PP C 500       2.150   4.757  25.607  1.00  0.00     0.159 HD
BRANCH  14  16
HETATM   16  C4P 4PP C 500       2.585   6.893  25.188  1.00 10.26     0.030 A 
HETATM   17  C3P 4PP C 500       1.870   8.041  24.788  1.00 10.63     0.046 A 
HETATM   18  C2P 4PP C 500       2.446   9.321  24.924  1.00 10.60     0.089 A 
HETATM   19  N1P 4PP C 500       3.741   9.448  25.463  1.00 11.75    -0.375 N 
HETATM   20  C6P 4PP C 500       4.462   8.301  25.869  1.00 11.13     0.089 A 
ATOM     21  H1P 4PP C 500       4.161  10.372  25.562  1.00  0.00     0.164 HD
HETATM   22  C5P 4PP C 500       3.892   7.027  25.734  1.00  9.10     0.046 A 
ENDBRANCH  14  16
ENDBRANCH  13  14
ENDBRANCH  12  13
ENDBRANCH  11  12
ENDBRANCH   7  11
ENDBRANCH   4   7
BRANCH   6  23
HETATM   23  C3B 4PP C 500       7.584   7.781  23.190  1.00  8.69    -0.025 A 
HETATM   24  C2B 4PP C 500       8.699   8.671  23.057  1.00  6.81     0.012 A 
HETATM   25  C1B 4PP C 500       9.460   9.030  24.207  1.00  6.12     0.002 A 
HETATM   26  C6B 4PP C 500       9.111   8.505  25.488  1.00  4.68     0.015 A 
HETATM   27  C5B 4PP C 500       8.002   7.622  25.615  1.00  5.27     0.008 A 
HETATM   28  C4B 4PP C 500       7.249   7.265  24.469  1.00  7.64     0.027 A 
BRANCH  27  29
HETATM   29  C1A 4PP C 500       7.598   7.039  26.982  1.00  4.15     0.102 C 
HETATM   30  N2A 4PP C 500       8.041   5.848  27.330  1.00  2.00    -0.385 N 
ATOM     31 2H2A 4PP C 500       7.774   5.462  28.235  1.00  0.00     0.157 HD
ATOM     32 1H2A 4PP C 500       8.640   5.320  26.694  1.00  0.00     0.157 HD
BRANCH  29  33
HETATM   33  N1A 4PP C 500       6.823   7.722  27.804  1.00  3.52    -0.385 N 
ATOM     34 2H1A 4PP C 500       5.841   7.883  27.581  1.00  0.00     0.157 HD
ATOM     35 1H1A 4PP C 500       7.204   8.100  28.671  1.00  0.00     0.157 HD
ENDBRANCH  29  33
ENDBRANCH  27  29
ENDBRANCH   6  23
TORSDOF 10
