REMARK  10 active torsions:
REMARK  status: ('A' for Active; 'I' for Inactive)
REMARK    1  A    between atoms: C1C_1  and  C1_13 
REMARK    2  A    between atoms: C4P_8  and  N1_11 
REMARK    3  A    between atoms: N1_11  and  C4_16 
REMARK    4  A    between atoms: C1_13  and  C2_14 
REMARK    5  A    between atoms: C1_13  and  C4D_27 
REMARK    6  A    between atoms: C2_14  and  C3_15 
REMARK    7  A    between atoms: C3_15  and  C4_16 
REMARK    8  A    between atoms: N1A_17  and  C1A_23 
REMARK    9  A    between atoms: C1A_23  and  C5B_34 
REMARK   10  A    between atoms: C6D_29  and  C3B_32 
ROOT
HETATM    1  C1D 4PP C 500       5.877   5.585  18.567  1.00 12.29     0.012 A 
HETATM    2  C2D 4PP C 500       4.908   4.770  17.919  1.00 13.77     0.001 A 
HETATM    3  C3D 4PP C 500       3.802   4.268  18.651  1.00 14.22     0.008 A 
HETATM    4  C4D 4PP C 500       3.655   4.573  20.036  1.00 13.69    -0.043 A 
HETATM    5  C5D 4PP C 500       4.629   5.391  20.696  1.00 13.12     0.020 A 
HETATM    6  C6D 4PP C 500       5.744   5.900  19.962  1.00 11.05    -0.025 A 
ENDROOT
BRANCH   4   7
HETATM    7  C1  4PP C 500       2.444   4.008  20.796  1.00 14.14     0.120 C 
BRANCH   7   8
HETATM    8  C1C 4PP C 500       2.296   2.505  20.485  1.00 16.45     0.181 C 
HETATM    9  O2  4PP C 500       3.051   1.697  21.043  1.00 16.98    -0.647 OA
HETATM   10  O3  4PP C 500       1.337   2.063  19.613  1.00 14.33    -0.647 OA
ENDBRANCH   7   8
BRANCH   7  11
HETATM   11  C2  4PP C 500       2.576   4.246  22.302  1.00 11.71     0.022 C 
BRANCH  11  12
HETATM   12  C3  4PP C 500       1.403   5.123  22.729  1.00 13.55     0.021 C 
BRANCH  12  13
HETATM   13  C4  4PP C 500       1.923   6.342  23.484  1.00 13.06     0.120 C 
BRANCH  13  14
HETATM   14  N1  4PP C 500       2.721   5.875  24.638  1.00 11.92    -0.390 N 
ATOM     15  H1  4PP C 500       2.841   4.892  24.881  1.00  0.00     0.159 HD
BRANCH  14  16
HETATM   16  C4P 4PP C 500       3.330   6.992  25.408  1.00 10.26     0.030 A 
HETATM   17  C3P 4PP C 500       2.826   8.294  25.208  1.00 10.63     0.046 A 
HETATM   18  C2P 4PP C 500       3.374   9.384  25.915  1.00 10.60     0.089 A 
HETATM   19  N1P 4PP C 500       4.428   9.166  26.824  1.00 11.75    -0.375 N 
HETATM   20  C6P 4PP C 500       4.936   7.863  27.030  1.00 11.13     0.089 A 
ATOM     21  H1P 4PP C 500       4.828   9.953  27.336  1.00  0.00     0.164 HD
HETATM   22  C5P 4PP C 500       4.394   6.777  26.328  1.00  9.10     0.046 A 
ENDBRANCH  14  16
ENDBRANCH  13  14
ENDBRANCH  12  13
ENDBRANCH  11  12
ENDBRANCH   7  11
ENDBRANCH   4   7
BRANCH   6  23
HETATM   23  C3B 4PP C 500       6.803   6.795  20.664  1.00  8.69    -0.025 A 
HETATM   24  C2B 4PP C 500       7.950   7.285  19.960  1.00  6.81     0.012 A 
HETATM   25  C1B 4PP C 500       8.902   8.101  20.637  1.00  6.12     0.002 A 
HETATM   26  C6B 4PP C 500       8.711   8.430  22.013  1.00  4.68     0.015 A 
HETATM   27  C5B 4PP C 500       7.569   7.943  22.708  1.00  5.27     0.008 A 
HETATM   28  C4B 4PP C 500       6.626   7.130  22.032  1.00  7.64     0.027 A 
BRANCH  27  29
HETATM   29  C1A 4PP C 500       7.332   8.281  24.192  1.00  4.15     0.102 C 
HETATM   30  N2A 4PP C 500       8.265   7.984  25.075  1.00  2.00    -0.385 N 
ATOM     31 2H2A 4PP C 500       8.108   8.208  26.058  1.00  0.00     0.157 HD
ATOM     32 1H2A 4PP C 500       9.128   7.531  24.775  1.00  0.00     0.157 HD
BRANCH  29  33
HETATM   33  N1A 4PP C 500       6.215   8.867  24.580  1.00  3.52    -0.385 N 
ATOM     34 2H1A 4PP C 500       6.219   9.541  25.346  1.00  0.00     0.157 HD
ATOM     35 1H1A 4PP C 500       5.334   8.645  24.118  1.00  0.00     0.157 HD
ENDBRANCH  29  33
ENDBRANCH  27  29
ENDBRANCH   6  23
TORSDOF 10
