REMARK  10 active torsions:
REMARK  status: ('A' for Active; 'I' for Inactive)
REMARK    1  A    between atoms: C1C_1  and  C1_13 
REMARK    2  A    between atoms: C4P_8  and  N1_11 
REMARK    3  A    between atoms: N1_11  and  C4_16 
REMARK    4  A    between atoms: C1_13  and  C2_14 
REMARK    5  A    between atoms: C1_13  and  C4D_27 
REMARK    6  A    between atoms: C2_14  and  C3_15 
REMARK    7  A    between atoms: C3_15  and  C4_16 
REMARK    8  A    between atoms: N1A_17  and  C1A_23 
REMARK    9  A    between atoms: C1A_23  and  C5B_34 
REMARK   10  A    between atoms: C6D_29  and  C3B_32 
ROOT
HETATM    1  C1D 4PP C 500       4.920   4.758  18.638  1.00 12.29     0.012 A 
HETATM    2  C2D 4PP C 500       5.540   6.033  18.749  1.00 13.77     0.001 A 
HETATM    3  C3D 4PP C 500       5.330   6.823  19.908  1.00 14.22     0.008 A 
HETATM    4  C4D 4PP C 500       4.498   6.348  20.964  1.00 13.69    -0.043 A 
HETATM    5  C5D 4PP C 500       3.868   5.065  20.857  1.00 13.12     0.020 A 
HETATM    6  C6D 4PP C 500       4.079   4.265  19.693  1.00 11.05    -0.025 A 
ENDROOT
BRANCH   4   7
HETATM    7  C1  4PP C 500       4.293   7.235  22.203  1.00 14.14     0.120 C 
BRANCH   7   8
HETATM    8  C1C 4PP C 500       2.834   7.733  22.245  1.00 16.45     0.181 C 
HETATM    9  O2  4PP C 500       2.610   8.919  22.526  1.00 16.98    -0.647 OA
HETATM   10  O3  4PP C 500       1.797   6.883  21.967  1.00 14.33    -0.647 OA
ENDBRANCH   7   8
BRANCH   7  11
HETATM   11  C2  4PP C 500       4.653   6.483  23.487  1.00 11.71     0.022 C 
BRANCH  11  12
HETATM   12  C3  4PP C 500       4.040   7.253  24.653  1.00 13.55     0.021 C 
BRANCH  12  13
HETATM   13  C4  4PP C 500       4.676   6.795  25.960  1.00 13.06     0.120 C 
BRANCH  13  14
HETATM   14  N1  4PP C 500       5.583   7.861  26.440  1.00 11.92    -0.390 N 
ATOM     15  H1  4PP C 500       5.357   8.490  27.211  1.00  0.00     0.159 HD
BRANCH  14  16
HETATM   16  C4P 4PP C 500       6.858   7.918  25.678  1.00 10.26     0.030 A 
HETATM   17  C3P 4PP C 500       8.009   7.344  26.257  1.00 10.63     0.046 A 
HETATM   18  C2P 4PP C 500       9.241   7.377  25.571  1.00 10.60     0.089 A 
HETATM   19  N1P 4PP C 500       9.316   7.984  24.302  1.00 11.75    -0.375 N 
HETATM   20  C6P 4PP C 500       8.165   8.558  23.716  1.00 11.13     0.089 A 
ATOM     21  H1P 4PP C 500      10.206   8.010  23.804  1.00  0.00     0.164 HD
HETATM   22  C5P 4PP C 500       6.939   8.528  24.395  1.00  9.10     0.046 A 
ENDBRANCH  14  16
ENDBRANCH  13  14
ENDBRANCH  12  13
ENDBRANCH  11  12
ENDBRANCH   7  11
ENDBRANCH   4   7
BRANCH   6  23
HETATM   23  C3B 4PP C 500       3.409   2.869  19.568  1.00  8.69    -0.025 A 
HETATM   24  C2B 4PP C 500       2.395   2.444  20.486  1.00  6.81     0.012 A 
HETATM   25  C1B 4PP C 500       1.804   1.155  20.343  1.00  6.12     0.002 A 
HETATM   26  C6B 4PP C 500       2.222   0.291  19.287  1.00  4.68     0.015 A 
HETATM   27  C5B 4PP C 500       3.229   0.718  18.377  1.00  5.27     0.008 A 
HETATM   28  C4B 4PP C 500       3.816   1.999  18.524  1.00  7.64     0.027 A 
BRANCH  27  29
HETATM   29  C1A 4PP C 500       3.702  -0.190  17.226  1.00  4.15     0.102 C 
HETATM   30  N2A 4PP C 500       4.975  -0.523  17.150  1.00  2.00    -0.385 N 
ATOM     31 2H2A 4PP C 500       5.288  -1.124  16.389  1.00  0.00     0.157 HD
ATOM     32 1H2A 4PP C 500       5.636  -0.176  17.846  1.00  0.00     0.157 HD
BRANCH  29  33
HETATM   33  N1A 4PP C 500       2.847  -0.639  16.326  1.00  3.52    -0.385 N 
ATOM     34 2H1A 4PP C 500       3.036  -0.534  15.329  1.00  0.00     0.157 HD
ATOM     35 1H1A 4PP C 500       1.983  -1.093  16.624  1.00  0.00     0.157 HD
ENDBRANCH  29  33
ENDBRANCH  27  29
ENDBRANCH   6  23
TORSDOF 10
