REMARK  10 active torsions:
REMARK  status: ('A' for Active; 'I' for Inactive)
REMARK    1  A    between atoms: C1C_1  and  C1_13 
REMARK    2  A    between atoms: C4P_8  and  N1_11 
REMARK    3  A    between atoms: N1_11  and  C4_16 
REMARK    4  A    between atoms: C1_13  and  C2_14 
REMARK    5  A    between atoms: C1_13  and  C4D_27 
REMARK    6  A    between atoms: C2_14  and  C3_15 
REMARK    7  A    between atoms: C3_15  and  C4_16 
REMARK    8  A    between atoms: N1A_17  and  C1A_23 
REMARK    9  A    between atoms: C1A_23  and  C5B_34 
REMARK   10  A    between atoms: C6D_29  and  C3B_32 
ROOT
HETATM    1  C1D 4PP C 500       2.654   8.250  23.982  1.00 12.29     0.012 A 
HETATM    2  C2D 4PP C 500       1.585   8.426  23.062  1.00 13.77     0.001 A 
HETATM    3  C3D 4PP C 500       1.852   8.476  21.669  1.00 14.22     0.008 A 
HETATM    4  C4D 4PP C 500       3.187   8.353  21.185  1.00 13.69    -0.043 A 
HETATM    5  C5D 4PP C 500       4.269   8.178  22.108  1.00 13.12     0.020 A 
HETATM    6  C6D 4PP C 500       4.005   8.125  23.511  1.00 11.05    -0.025 A 
ENDROOT
BRANCH   4   7
HETATM    7  C1  4PP C 500       3.435   8.415  19.669  1.00 14.14     0.120 C 
BRANCH   7   8
HETATM    8  C1C 4PP C 500       4.921   8.731  19.402  1.00 16.45     0.181 C 
HETATM    9  O2  4PP C 500       5.741   7.802  19.390  1.00 16.98    -0.647 OA
HETATM   10  O3  4PP C 500       5.331  10.016  19.172  1.00 14.33    -0.647 OA
ENDBRANCH   7   8
BRANCH   7  11
HETATM   11  C2  4PP C 500       3.021   7.108  18.988  1.00 11.71     0.022 C 
BRANCH  11  12
HETATM   12  C3  4PP C 500       3.780   7.024  17.667  1.00 13.55     0.021 C 
BRANCH  12  13
HETATM   13  C4  4PP C 500       4.561   5.716  17.607  1.00 13.06     0.120 C 
BRANCH  13  14
HETATM   14  N1  4PP C 500       4.933   5.328  18.985  1.00 11.92    -0.390 N 
ATOM     15  H1  4PP C 500       5.758   5.683  19.468  1.00  0.00     0.159 HD
BRANCH  14  16
HETATM   16  C4P 4PP C 500       3.975   4.365  19.591  1.00 10.26     0.030 A 
HETATM   17  C3P 4PP C 500       3.602   3.231  18.840  1.00 10.63     0.046 A 
HETATM   18  C2P 4PP C 500       2.695   2.292  19.374  1.00 10.60     0.089 A 
HETATM   19  N1P 4PP C 500       2.164   2.492  20.663  1.00 11.75    -0.375 N 
HETATM   20  C6P 4PP C 500       2.537   3.625  21.421  1.00 11.13     0.089 A 
ATOM     21  H1P 4PP C 500       1.507   1.815  21.051  1.00  0.00     0.164 HD
HETATM   22  C5P 4PP C 500       3.438   4.561  20.894  1.00  9.10     0.046 A 
ENDBRANCH  14  16
ENDBRANCH  13  14
ENDBRANCH  12  13
ENDBRANCH  11  12
ENDBRANCH   7  11
ENDBRANCH   4   7
BRANCH   6  23
HETATM   23  C3B 4PP C 500       5.169   7.927  24.521  1.00  8.69    -0.025 A 
HETATM   24  C2B 4PP C 500       4.918   7.659  25.905  1.00  6.81     0.012 A 
HETATM   25  C1B 4PP C 500       6.010   7.486  26.804  1.00  6.12     0.002 A 
HETATM   26  C6B 4PP C 500       7.351   7.579  26.325  1.00  4.68     0.015 A 
HETATM   27  C5B 4PP C 500       7.596   7.845  24.948  1.00  5.27     0.008 A 
HETATM   28  C4B 4PP C 500       6.508   8.019  24.058  1.00  7.64     0.027 A 
BRANCH  27  29
HETATM   29  C1A 4PP C 500       9.032   7.951  24.399  1.00  4.15     0.102 C 
HETATM   30  N2A 4PP C 500      10.046   7.667  25.191  1.00  2.00    -0.385 N 
ATOM     31 2H2A 4PP C 500      10.996   7.737  24.827  1.00  0.00     0.157 HD
ATOM     32 1H2A 4PP C 500       9.877   7.388  26.157  1.00  0.00     0.157 HD
BRANCH  29  33
HETATM   33  N1A 4PP C 500       9.250   8.313  23.148  1.00  3.52    -0.385 N 
ATOM     34 2H1A 4PP C 500       8.506   8.731  22.590  1.00  0.00     0.157 HD
ATOM     35 1H1A 4PP C 500      10.168   8.172  22.727  1.00  0.00     0.157 HD
ENDBRANCH  29  33
ENDBRANCH  27  29
ENDBRANCH   6  23
TORSDOF 10
