REMARK  10 active torsions:
REMARK  status: ('A' for Active; 'I' for Inactive)
REMARK    1  A    between atoms: C1C_1  and  C1_13 
REMARK    2  A    between atoms: C4P_8  and  N1_11 
REMARK    3  A    between atoms: N1_11  and  C4_16 
REMARK    4  A    between atoms: C1_13  and  C2_14 
REMARK    5  A    between atoms: C1_13  and  C4D_27 
REMARK    6  A    between atoms: C2_14  and  C3_15 
REMARK    7  A    between atoms: C3_15  and  C4_16 
REMARK    8  A    between atoms: N1A_17  and  C1A_23 
REMARK    9  A    between atoms: C1A_23  and  C5B_34 
REMARK   10  A    between atoms: C6D_29  and  C3B_32 
ROOT
HETATM    1  C1D 4PP C 500       8.141   7.746  23.052  1.00 12.29     0.012 A 
HETATM    2  C2D 4PP C 500       8.606   7.950  24.380  1.00 13.77     0.001 A 
HETATM    3  C3D 4PP C 500       7.681   8.231  25.419  1.00 14.22     0.008 A 
HETATM    4  C4D 4PP C 500       6.286   8.313  25.139  1.00 13.69    -0.043 A 
HETATM    5  C5D 4PP C 500       5.811   8.111  23.802  1.00 13.12     0.020 A 
HETATM    6  C6D 4PP C 500       6.739   7.826  22.754  1.00 11.05    -0.025 A 
ENDROOT
BRANCH   4   7
HETATM    7  C1  4PP C 500       5.315   8.623  26.290  1.00 14.14     0.120 C 
BRANCH   7   8
HETATM    8  C1C 4PP C 500       4.241   9.617  25.806  1.00 16.45     0.181 C 
HETATM    9  O2  4PP C 500       4.206  10.753  26.298  1.00 16.98    -0.647 OA
HETATM   10  O3  4PP C 500       3.341   9.257  24.839  1.00 14.33    -0.647 OA
ENDBRANCH   7   8
BRANCH   7  11
HETATM   11  C2  4PP C 500       4.674   7.343  26.832  1.00 11.71     0.022 C 
BRANCH  11  12
HETATM   12  C3  4PP C 500       5.427   6.164  26.224  1.00 13.55     0.021 C 
BRANCH  12  13
HETATM   13  C4  4PP C 500       4.472   5.326  25.381  1.00 13.06     0.120 C 
BRANCH  13  14
HETATM   14  N1  4PP C 500       3.527   6.235  24.697  1.00 11.92    -0.390 N 
ATOM     15  H1  4PP C 500       3.208   7.119  25.093  1.00  0.00     0.159 HD
BRANCH  14  16
HETATM   16  C4P 4PP C 500       3.092   5.723  23.371  1.00 10.26     0.030 A 
HETATM   17  C3P 4PP C 500       1.831   6.121  22.881  1.00 10.63     0.046 A 
HETATM   18  C2P 4PP C 500       1.377   5.658  21.629  1.00 10.60     0.089 A 
HETATM   19  N1P 4PP C 500       2.191   4.797  20.867  1.00 11.75    -0.375 N 
HETATM   20  C6P 4PP C 500       3.457   4.397  21.352  1.00 11.13     0.089 A 
ATOM     21  H1P 4PP C 500       1.865   4.460  19.961  1.00  0.00     0.164 HD
HETATM   22  C5P 4PP C 500       3.912   4.854  22.597  1.00  9.10     0.046 A 
ENDBRANCH  14  16
ENDBRANCH  13  14
ENDBRANCH  12  13
ENDBRANCH  11  12
ENDBRANCH   7  11
ENDBRANCH   4   7
BRANCH   6  23
HETATM   23  C3B 4PP C 500       6.236   7.597  21.302  1.00  8.69    -0.025 A 
HETATM   24  C2B 4PP C 500       7.102   7.083  20.285  1.00  6.81     0.012 A 
HETATM   25  C1B 4PP C 500       6.608   6.888  18.962  1.00  6.12     0.002 A 
HETATM   26  C6B 4PP C 500       5.250   7.204  18.654  1.00  4.68     0.015 A 
HETATM   27  C5B 4PP C 500       4.391   7.713  19.669  1.00  5.27     0.008 A 
HETATM   28  C4B 4PP C 500       4.888   7.907  20.981  1.00  7.64     0.027 A 
BRANCH  27  29
HETATM   29  C1A 4PP C 500       2.921   8.062  19.369  1.00  4.15     0.102 C 
HETATM   30  N2A 4PP C 500       2.458   7.899  18.146  1.00  2.00    -0.385 N 
ATOM     31 2H2A 4PP C 500       1.484   8.130  17.948  1.00  0.00     0.157 HD
ATOM     32 1H2A 4PP C 500       3.071   7.551  17.410  1.00  0.00     0.157 HD
BRANCH  29  33
HETATM   33  N1A 4PP C 500       2.128   8.513  20.323  1.00  3.52    -0.385 N 
ATOM     34 2H1A 4PP C 500       1.173   8.167  20.413  1.00  0.00     0.157 HD
ATOM     35 1H1A 4PP C 500       2.465   9.218  20.978  1.00  0.00     0.157 HD
ENDBRANCH  29  33
ENDBRANCH  27  29
ENDBRANCH   6  23
TORSDOF 10
