REMARK  10 active torsions:
REMARK  status: ('A' for Active; 'I' for Inactive)
REMARK    1  A    between atoms: C1C_1  and  C1_13 
REMARK    2  A    between atoms: C4P_8  and  N1_11 
REMARK    3  A    between atoms: N1_11  and  C4_16 
REMARK    4  A    between atoms: C1_13  and  C2_14 
REMARK    5  A    between atoms: C1_13  and  C4D_27 
REMARK    6  A    between atoms: C2_14  and  C3_15 
REMARK    7  A    between atoms: C3_15  and  C4_16 
REMARK    8  A    between atoms: N1A_17  and  C1A_23 
REMARK    9  A    between atoms: C1A_23  and  C5B_34 
REMARK   10  A    between atoms: C6D_29  and  C3B_32 
ROOT
HETATM    1  C1D 4PP C 500       3.048   7.659  23.046  1.00 12.29     0.012 A 
HETATM    2  C2D 4PP C 500       3.271   8.623  24.068  1.00 13.77     0.001 A 
HETATM    3  C3D 4PP C 500       4.287   8.408  25.034  1.00 14.22     0.008 A 
HETATM    4  C4D 4PP C 500       5.087   7.228  24.989  1.00 13.69    -0.043 A 
HETATM    5  C5D 4PP C 500       4.867   6.253  23.963  1.00 13.12     0.020 A 
HETATM    6  C6D 4PP C 500       3.846   6.466  22.987  1.00 11.05    -0.025 A 
ENDROOT
BRANCH   4   7
HETATM    7  C1  4PP C 500       6.177   7.030  26.055  1.00 14.14     0.120 C 
BRANCH   7   8
HETATM    8  C1C 4PP C 500       6.205   5.553  26.495  1.00 16.45     0.181 C 
HETATM    9  O2  4PP C 500       7.225   5.106  27.038  1.00 16.98    -0.647 OA
HETATM   10  O3  4PP C 500       5.118   4.744  26.300  1.00 14.33    -0.647 OA
ENDBRANCH   7   8
BRANCH   7  11
HETATM   11  C2  4PP C 500       7.546   7.474  25.536  1.00 11.71     0.022 C 
BRANCH  11  12
HETATM   12  C3  4PP C 500       7.329   8.113  24.167  1.00 13.55     0.021 C 
BRANCH  12  13
HETATM   13  C4  4PP C 500       8.564   8.916  23.775  1.00 13.06     0.120 C 
BRANCH  13  14
HETATM   14  N1  4PP C 500       9.113   8.352  22.522  1.00 11.92    -0.390 N 
ATOM     15  H1  4PP C 500      10.092   8.095  22.400  1.00  0.00     0.159 HD
BRANCH  14  16
HETATM   16  C4P 4PP C 500       8.084   8.199  21.460  1.00 10.26     0.030 A 
HETATM   17  C3P 4PP C 500       8.043   6.989  20.737  1.00 10.63     0.046 A 
HETATM   18  C2P 4PP C 500       7.085   6.801  19.720  1.00 10.60     0.089 A 
HETATM   19  N1P 4PP C 500       6.167   7.829  19.429  1.00 11.75    -0.375 N 
HETATM   20  C6P 4PP C 500       6.201   9.043  20.151  1.00 11.13     0.089 A 
ATOM     21  H1P 4PP C 500       5.473   7.696  18.693  1.00  0.00     0.164 HD
HETATM   22  C5P 4PP C 500       7.153   9.234  21.163  1.00  9.10     0.046 A 
ENDBRANCH  14  16
ENDBRANCH  13  14
ENDBRANCH  12  13
ENDBRANCH  11  12
ENDBRANCH   7  11
ENDBRANCH   4   7
BRANCH   6  23
HETATM   23  C3B 4PP C 500       3.602   5.420  21.865  1.00  8.69    -0.025 A 
HETATM   24  C2B 4PP C 500       2.780   4.268  22.085  1.00  6.81     0.012 A 
HETATM   25  C1B 4PP C 500       2.581   3.327  21.033  1.00  6.12     0.002 A 
HETATM   26  C6B 4PP C 500       3.200   3.534  19.763  1.00  4.68     0.015 A 
HETATM   27  C5B 4PP C 500       4.015   4.681  19.549  1.00  5.27     0.008 A 
HETATM   28  C4B 4PP C 500       4.212   5.612  20.597  1.00  7.64     0.027 A 
BRANCH  27  29
HETATM   29  C1A 4PP C 500       4.696   4.934  18.190  1.00  4.15     0.102 C 
HETATM   30  N2A 4PP C 500       4.269   5.924  17.432  1.00  2.00    -0.385 N 
ATOM     31 2H2A 4PP C 500       4.719   6.092  16.532  1.00  0.00     0.157 HD
ATOM     32 1H2A 4PP C 500       3.493   6.508  17.743  1.00  0.00     0.157 HD
BRANCH  29  33
HETATM   33  N1A 4PP C 500       5.699   4.177  17.787  1.00  3.52    -0.385 N 
ATOM     34 2H1A 4PP C 500       6.495   3.999  18.399  1.00  0.00     0.157 HD
ATOM     35 1H1A 4PP C 500       5.688   3.766  16.853  1.00  0.00     0.157 HD
ENDBRANCH  29  33
ENDBRANCH  27  29
ENDBRANCH   6  23
TORSDOF 10
