REMARK  10 active torsions:
REMARK  status: ('A' for Active; 'I' for Inactive)
REMARK    1  A    between atoms: C1C_1  and  C1_13 
REMARK    2  A    between atoms: C4P_8  and  N1_11 
REMARK    3  A    between atoms: N1_11  and  C4_16 
REMARK    4  A    between atoms: C1_13  and  C2_14 
REMARK    5  A    between atoms: C1_13  and  C4D_27 
REMARK    6  A    between atoms: C2_14  and  C3_15 
REMARK    7  A    between atoms: C3_15  and  C4_16 
REMARK    8  A    between atoms: N1A_17  and  C1A_23 
REMARK    9  A    between atoms: C1A_23  and  C5B_34 
REMARK   10  A    between atoms: C6D_29  and  C3B_32 
ROOT
HETATM    1  C1D 4PP C 500       3.401   6.618  25.082  1.00 12.29     0.012 A 
HETATM    2  C2D 4PP C 500       2.167   6.250  24.478  1.00 13.77     0.001 A 
HETATM    3  C3D 4PP C 500       2.139   5.841  23.119  1.00 14.22     0.008 A 
HETATM    4  C4D 4PP C 500       3.342   5.797  22.354  1.00 13.69    -0.043 A 
HETATM    5  C5D 4PP C 500       4.588   6.168  22.957  1.00 13.12     0.020 A 
HETATM    6  C6D 4PP C 500       4.620   6.579  24.325  1.00 11.05    -0.025 A 
ENDROOT
BRANCH   4   7
HETATM    7  C1  4PP C 500       3.270   5.350  20.885  1.00 14.14     0.120 C 
BRANCH   7   8
HETATM    8  C1C 4PP C 500       3.043   3.826  20.820  1.00 16.45     0.181 C 
HETATM    9  O2  4PP C 500       2.552   3.248  21.799  1.00 16.98    -0.647 OA
HETATM   10  O3  4PP C 500       3.370   3.119  19.694  1.00 14.33    -0.647 OA
ENDBRANCH   7   8
BRANCH   7  11
HETATM   11  C2  4PP C 500       2.169   6.101  20.132  1.00 11.71     0.022 C 
BRANCH  11  12
HETATM   12  C3  4PP C 500       2.689   7.506  19.846  1.00 13.55     0.021 C 
BRANCH  12  13
HETATM   13  C4  4PP C 500       3.354   7.537  18.474  1.00 13.06     0.120 C 
BRANCH  13  14
HETATM   14  N1  4PP C 500       4.507   6.611  18.490  1.00 11.92    -0.390 N 
ATOM     15  H1  4PP C 500       4.523   5.721  17.992  1.00  0.00     0.159 HD
BRANCH  14  16
HETATM   16  C4P 4PP C 500       5.640   7.116  19.309  1.00 10.26     0.030 A 
HETATM   17  C3P 4PP C 500       6.519   6.177  19.887  1.00 10.63     0.046 A 
HETATM   18  C2P 4PP C 500       7.607   6.611  20.673  1.00 10.60     0.089 A 
HETATM   19  N1P 4PP C 500       7.812   7.989  20.877  1.00 11.75    -0.375 N 
HETATM   20  C6P 4PP C 500       6.937   8.936  20.298  1.00 11.13     0.089 A 
ATOM     21  H1P 4PP C 500       8.598   8.306  21.446  1.00  0.00     0.164 HD
HETATM   22  C5P 4PP C 500       5.854   8.508  19.517  1.00  9.10     0.046 A 
ENDBRANCH  14  16
ENDBRANCH  13  14
ENDBRANCH  12  13
ENDBRANCH  11  12
ENDBRANCH   7  11
ENDBRANCH   4   7
BRANCH   6  23
HETATM   23  C3B 4PP C 500       5.966   6.976  24.992  1.00  8.69    -0.025 A 
HETATM   24  C2B 4PP C 500       6.332   6.482  26.285  1.00  6.81     0.012 A 
HETATM   25  C1B 4PP C 500       7.573   6.870  26.868  1.00  6.12     0.002 A 
HETATM   26  C6B 4PP C 500       8.449   7.749  26.164  1.00  4.68     0.015 A 
HETATM   27  C5B 4PP C 500       8.083   8.237  24.878  1.00  5.27     0.008 A 
HETATM   28  C4B 4PP C 500       6.847   7.851  24.303  1.00  7.64     0.027 A 
BRANCH  27  29
HETATM   29  C1A 4PP C 500       9.006   9.186  24.091  1.00  4.15     0.102 C 
HETATM   30  N2A 4PP C 500       8.523   9.840  23.054  1.00  2.00    -0.385 N 
ATOM     31 2H2A 4PP C 500       9.134  10.468  22.533  1.00  0.00     0.157 HD
ATOM     32 1H2A 4PP C 500       7.549   9.711  22.777  1.00  0.00     0.157 HD
BRANCH  29  33
HETATM   33  N1A 4PP C 500      10.266   9.352  24.449  1.00  3.52    -0.385 N 
ATOM     34 2H1A 4PP C 500      10.609  10.269  24.736  1.00  0.00     0.157 HD
ATOM     35 1H1A 4PP C 500      10.909   8.561  24.438  1.00  0.00     0.157 HD
ENDBRANCH  29  33
ENDBRANCH  27  29
ENDBRANCH   6  23
TORSDOF 10
