REMARK  10 active torsions:
REMARK  status: ('A' for Active; 'I' for Inactive)
REMARK    1  A    between atoms: C1C_1  and  C1_13 
REMARK    2  A    between atoms: C4P_8  and  N1_11 
REMARK    3  A    between atoms: N1_11  and  C4_16 
REMARK    4  A    between atoms: C1_13  and  C2_14 
REMARK    5  A    between atoms: C1_13  and  C4D_27 
REMARK    6  A    between atoms: C2_14  and  C3_15 
REMARK    7  A    between atoms: C3_15  and  C4_16 
REMARK    8  A    between atoms: N1A_17  and  C1A_23 
REMARK    9  A    between atoms: C1A_23  and  C5B_34 
REMARK   10  A    between atoms: C6D_29  and  C3B_32 
ROOT
HETATM    1  C1D 4PP C 500       8.055   7.762  23.712  1.00 12.29     0.012 A 
HETATM    2  C2D 4PP C 500       8.147   7.950  25.118  1.00 13.77     0.001 A 
HETATM    3  C3D 4PP C 500       6.966   8.123  25.887  1.00 14.22     0.008 A 
HETATM    4  C4D 4PP C 500       5.687   8.112  25.257  1.00 13.69    -0.043 A 
HETATM    5  C5D 4PP C 500       5.589   7.925  23.840  1.00 13.12     0.020 A 
HETATM    6  C6D 4PP C 500       6.774   7.749  23.063  1.00 11.05    -0.025 A 
ENDROOT
BRANCH   4   7
HETATM    7  C1  4PP C 500       4.432   8.305  26.124  1.00 14.14     0.120 C 
BRANCH   7   8
HETATM    8  C1C 4PP C 500       3.759   9.645  25.766  1.00 16.45     0.181 C 
HETATM    9  O2  4PP C 500       2.799   9.646  24.983  1.00 16.98    -0.647 OA
HETATM   10  O3  4PP C 500       4.207  10.819  26.309  1.00 14.33    -0.647 OA
ENDBRANCH   7   8
BRANCH   7  11
HETATM   11  C2  4PP C 500       3.457   7.138  25.952  1.00 11.71     0.022 C 
BRANCH  11  12
HETATM   12  C3  4PP C 500       4.288   5.866  25.812  1.00 13.55     0.021 C 
BRANCH  12  13
HETATM   13  C4  4PP C 500       4.250   5.386  24.365  1.00 13.06     0.120 C 
BRANCH  13  14
HETATM   14  N1  4PP C 500       2.838   5.180  23.975  1.00 11.92    -0.390 N 
ATOM     15  H1  4PP C 500       2.225   4.495  24.416  1.00  0.00     0.159 HD
BRANCH  14  16
HETATM   16  C4P 4PP C 500       2.408   6.079  22.872  1.00 10.26     0.030 A 
HETATM   17  C3P 4PP C 500       2.263   5.531  21.581  1.00 10.63     0.046 A 
HETATM   18  C2P 4PP C 500       1.859   6.346  20.503  1.00 10.60     0.089 A 
HETATM   19  N1P 4PP C 500       1.600   7.713  20.724  1.00 11.75    -0.375 N 
HETATM   20  C6P 4PP C 500       1.741   8.268  22.016  1.00 11.13     0.089 A 
ATOM     21  H1P 4PP C 500       1.309   8.306  19.946  1.00  0.00     0.164 HD
HETATM   22  C5P 4PP C 500       2.143   7.461  23.089  1.00  9.10     0.046 A 
ENDBRANCH  14  16
ENDBRANCH  13  14
ENDBRANCH  12  13
ENDBRANCH  11  12
ENDBRANCH   7  11
ENDBRANCH   4   7
BRANCH   6  23
HETATM   23  C3B 4PP C 500       6.681   7.537  21.526  1.00  8.69    -0.025 A 
HETATM   24  C2B 4PP C 500       7.628   6.723  20.826  1.00  6.81     0.012 A 
HETATM   25  C1B 4PP C 500       7.513   6.554  19.416  1.00  6.12     0.002 A 
HETATM   26  C6B 4PP C 500       6.454   7.194  18.704  1.00  4.68     0.015 A 
HETATM   27  C5B 4PP C 500       5.514   8.001  19.404  1.00  5.27     0.008 A 
HETATM   28  C4B 4PP C 500       5.634   8.169  20.805  1.00  7.64     0.027 A 
BRANCH  27  29
HETATM   29  C1A 4PP C 500       4.360   8.705  18.665  1.00  4.15     0.102 C 
HETATM   30  N2A 4PP C 500       3.313   7.998  18.287  1.00  2.00    -0.385 N 
ATOM     31 2H2A 4PP C 500       2.549   8.464  17.798  1.00  0.00     0.157 HD
ATOM     32 1H2A 4PP C 500       3.276   6.997  18.478  1.00  0.00     0.157 HD
BRANCH  29  33
HETATM   33  N1A 4PP C 500       4.408  10.000  18.417  1.00  3.52    -0.385 N 
ATOM     34 2H1A 4PP C 500       5.242  10.422  18.009  1.00  0.00     0.157 HD
ATOM     35 1H1A 4PP C 500       3.608  10.594  18.639  1.00  0.00     0.157 HD
ENDBRANCH  29  33
ENDBRANCH  27  29
ENDBRANCH   6  23
TORSDOF 10
