REMARK  10 active torsions:
REMARK  status: ('A' for Active; 'I' for Inactive)
REMARK    1  A    between atoms: C1C_1  and  C1_13 
REMARK    2  A    between atoms: C4P_8  and  N1_11 
REMARK    3  A    between atoms: N1_11  and  C4_16 
REMARK    4  A    between atoms: C1_13  and  C2_14 
REMARK    5  A    between atoms: C1_13  and  C4D_27 
REMARK    6  A    between atoms: C2_14  and  C3_15 
REMARK    7  A    between atoms: C3_15  and  C4_16 
REMARK    8  A    between atoms: N1A_17  and  C1A_23 
REMARK    9  A    between atoms: C1A_23  and  C5B_34 
REMARK   10  A    between atoms: C6D_29  and  C3B_32 
ROOT
HETATM    1  C1D 4PP C 500       3.207   6.635  25.479  1.00 12.29     0.012 A 
HETATM    2  C2D 4PP C 500       2.048   6.701  24.658  1.00 13.77     0.001 A 
HETATM    3  C3D 4PP C 500       2.068   6.132  23.358  1.00 14.22     0.008 A 
HETATM    4  C4D 4PP C 500       3.246   5.495  22.868  1.00 13.69    -0.043 A 
HETATM    5  C5D 4PP C 500       4.418   5.427  23.690  1.00 13.12     0.020 A 
HETATM    6  C6D 4PP C 500       4.401   5.998  25.000  1.00 11.05    -0.025 A 
ENDROOT
BRANCH   4   7
HETATM    7  C1  4PP C 500       3.230   4.893  21.454  1.00 14.14     0.120 C 
BRANCH   7   8
HETATM    8  C1C 4PP C 500       2.345   3.630  21.441  1.00 16.45     0.181 C 
HETATM    9  O2  4PP C 500       1.159   3.722  21.786  1.00 16.98    -0.647 OA
HETATM   10  O3  4PP C 500       2.856   2.423  21.045  1.00 14.33    -0.647 OA
ENDBRANCH   7   8
BRANCH   7  11
HETATM   11  C2  4PP C 500       2.742   5.915  20.423  1.00 11.71     0.022 C 
BRANCH  11  12
HETATM   12  C3  4PP C 500       3.938   6.292  19.554  1.00 13.55     0.021 C 
BRANCH  12  13
HETATM   13  C4  4PP C 500       5.200   6.329  20.408  1.00 13.06     0.120 C 
BRANCH  13  14
HETATM   14  N1  4PP C 500       5.373   7.702  20.930  1.00 11.92    -0.390 N 
ATOM     15  H1  4PP C 500       4.653   8.422  20.876  1.00  0.00     0.159 HD
BRANCH  14  16
HETATM   16  C4P 4PP C 500       6.710   7.921  21.543  1.00 10.26     0.030 A 
HETATM   17  C3P 4PP C 500       7.792   8.234  20.695  1.00 10.63     0.046 A 
HETATM   18  C2P 4PP C 500       9.078   8.448  21.233  1.00 10.60     0.089 A 
HETATM   19  N1P 4PP C 500       9.276   8.349  22.624  1.00 11.75    -0.375 N 
HETATM   20  C6P 4PP C 500       8.195   8.038  23.479  1.00 11.13     0.089 A 
ATOM     21  H1P 4PP C 500      10.206   8.502  23.016  1.00  0.00     0.164 HD
HETATM   22  C5P 4PP C 500       6.915   7.824  22.948  1.00  9.10     0.046 A 
ENDBRANCH  14  16
ENDBRANCH  13  14
ENDBRANCH  12  13
ENDBRANCH  11  12
ENDBRANCH   7  11
ENDBRANCH   4   7
BRANCH   6  23
HETATM   23  C3B 4PP C 500       5.662   5.923  25.904  1.00  8.69    -0.025 A 
HETATM   24  C2B 4PP C 500       6.426   7.093  26.215  1.00  6.81     0.012 A 
HETATM   25  C1B 4PP C 500       7.580   6.988  27.045  1.00  6.12     0.002 A 
HETATM   26  C6B 4PP C 500       7.971   5.717  27.566  1.00  4.68     0.015 A 
HETATM   27  C5B 4PP C 500       7.208   4.557  27.255  1.00  5.27     0.008 A 
HETATM   28  C4B 4PP C 500       6.063   4.666  26.427  1.00  7.64     0.027 A 
BRANCH  27  29
HETATM   29  C1A 4PP C 500       7.602   3.172  27.802  1.00  4.15     0.102 C 
HETATM   30  N2A 4PP C 500       8.686   3.057  28.543  1.00  2.00    -0.385 N 
ATOM     31 2H2A 4PP C 500       8.946   2.141  28.905  1.00  0.00     0.157 HD
ATOM     32 1H2A 4PP C 500       9.256   3.879  28.744  1.00  0.00     0.157 HD
BRANCH  29  33
HETATM   33  N1A 4PP C 500       6.863   2.109  27.541  1.00  3.52    -0.385 N 
ATOM     34 2H1A 4PP C 500       6.833   1.713  26.602  1.00  0.00     0.157 HD
ATOM     35 1H1A 4PP C 500       6.310   1.677  28.281  1.00  0.00     0.157 HD
ENDBRANCH  29  33
ENDBRANCH  27  29
ENDBRANCH   6  23
TORSDOF 10
