REMARK  10 active torsions:
REMARK  status: ('A' for Active; 'I' for Inactive)
REMARK    1  A    between atoms: C1C_1  and  C1_13 
REMARK    2  A    between atoms: C4P_8  and  N1_11 
REMARK    3  A    between atoms: N1_11  and  C4_16 
REMARK    4  A    between atoms: C1_13  and  C2_14 
REMARK    5  A    between atoms: C1_13  and  C4D_27 
REMARK    6  A    between atoms: C2_14  and  C3_15 
REMARK    7  A    between atoms: C3_15  and  C4_16 
REMARK    8  A    between atoms: N1A_17  and  C1A_23 
REMARK    9  A    between atoms: C1A_23  and  C5B_34 
REMARK   10  A    between atoms: C6D_29  and  C3B_32 
ROOT
HETATM    1  C1D 4PP C 500       8.445   8.022  22.310  1.00 12.29     0.012 A 
HETATM    2  C2D 4PP C 500       9.030   8.006  23.606  1.00 13.77     0.001 A 
HETATM    3  C3D 4PP C 500       8.204   8.083  24.757  1.00 14.22     0.008 A 
HETATM    4  C4D 4PP C 500       6.787   8.177  24.623  1.00 13.69    -0.043 A 
HETATM    5  C5D 4PP C 500       6.192   8.194  23.319  1.00 13.12     0.020 A 
HETATM    6  C6D 4PP C 500       7.020   8.116  22.158  1.00 11.05    -0.025 A 
ENDROOT
BRANCH   4   7
HETATM    7  C1  4PP C 500       5.926   8.260  25.893  1.00 14.14     0.120 C 
BRANCH   7   8
HETATM    8  C1C 4PP C 500       4.712   9.175  25.634  1.00 16.45     0.181 C 
HETATM    9  O2  4PP C 500       3.846   8.812  24.826  1.00 16.98    -0.647 OA
HETATM   10  O3  4PP C 500       4.583  10.367  26.294  1.00 14.33    -0.647 OA
ENDBRANCH   7   8
BRANCH   7  11
HETATM   11  C2  4PP C 500       5.477   6.869  26.349  1.00 11.71     0.022 C 
BRANCH  11  12
HETATM   12  C3  4PP C 500       4.707   6.237  25.193  1.00 13.55     0.021 C 
BRANCH  12  13
HETATM   13  C4  4PP C 500       3.290   5.900  25.644  1.00 13.06     0.120 C 
BRANCH  13  14
HETATM   14  N1  4PP C 500       2.336   6.575  24.739  1.00 11.92    -0.390 N 
ATOM     15  H1  4PP C 500       1.595   7.197  25.061  1.00  0.00     0.159 HD
BRANCH  14  16
HETATM   16  C4P 4PP C 500       2.571   6.249  23.307  1.00 10.26     0.030 A 
HETATM   17  C3P 4PP C 500       2.606   4.892  22.927  1.00 10.63     0.046 A 
HETATM   18  C2P 4PP C 500       2.828   4.536  21.581  1.00 10.60     0.089 A 
HETATM   19  N1P 4PP C 500       3.013   5.545  20.615  1.00 11.75    -0.375 N 
HETATM   20  C6P 4PP C 500       2.976   6.907  20.990  1.00 11.13     0.089 A 
ATOM     21  H1P 4PP C 500       3.175   5.291  19.641  1.00  0.00     0.164 HD
HETATM   22  C5P 4PP C 500       2.756   7.265  22.328  1.00  9.10     0.046 A 
ENDBRANCH  14  16
ENDBRANCH  13  14
ENDBRANCH  12  13
ENDBRANCH  11  12
ENDBRANCH   7  11
ENDBRANCH   4   7
BRANCH   6  23
HETATM   23  C3B 4PP C 500       6.386   8.126  20.740  1.00  8.69    -0.025 A 
HETATM   24  C2B 4PP C 500       6.094   9.353  20.063  1.00  6.81     0.012 A 
HETATM   25  C1B 4PP C 500       5.509   9.325  18.763  1.00  6.12     0.002 A 
HETATM   26  C6B 4PP C 500       5.216   8.075  18.139  1.00  4.68     0.015 A 
HETATM   27  C5B 4PP C 500       5.509   6.858  18.816  1.00  5.27     0.008 A 
HETATM   28  C4B 4PP C 500       6.088   6.891  20.108  1.00  7.64     0.027 A 
BRANCH  27  29
HETATM   29  C1A 4PP C 500       5.207   5.492  18.170  1.00  4.15     0.102 C 
HETATM   30  N2A 4PP C 500       4.492   5.448  17.063  1.00  2.00    -0.385 N 
ATOM     31 2H2A 4PP C 500       4.293   4.545  16.635  1.00  0.00     0.157 HD
ATOM     32 1H2A 4PP C 500       4.141   6.311  16.647  1.00  0.00     0.157 HD
BRANCH  29  33
HETATM   33  N1A 4PP C 500       5.662   4.376  18.708  1.00  3.52    -0.385 N 
ATOM     34 2H1A 4PP C 500       6.609   4.051  18.512  1.00  0.00     0.157 HD
ATOM     35 1H1A 4PP C 500       5.064   3.825  19.324  1.00  0.00     0.157 HD
ENDBRANCH  29  33
ENDBRANCH  27  29
ENDBRANCH   6  23
TORSDOF 10
