612.pdb
  rDOCK(R)          3D
libRbt.so/2013.1/901 2013/11/27
 23 24  0  0  0  0  0  0  0  0999 V2000
    0.8008  -37.2325   23.8083 C   0  0  0  0  0  0
    0.3646  -38.2339   24.8675 C   0  0  0  0  0  0
   -1.0811  -38.0308   25.2382 C   0  0  0  0  0  0
   -1.3200  -36.6031   25.7198 C   0  0  0  0  0  0
   -0.8963  -35.6061   24.6490 C   0  0  0  0  0  0
    0.5607  -35.8105   24.2963 C   0  0  0  0  0  0
    2.6009  -37.4859   23.6156 S   0  0  0  0  0  0
    3.2383  -36.2498   22.3809 C   0  0  0  0  0  0
    3.9046  -35.1037   22.7919 C   0  0  0  0  0  0
    4.4452  -34.8727   24.2156 C   0  0  0  0  0  0
    3.5896  -33.9715   25.0745 C   0  0  0  0  0  0
    5.9011  -34.5572   24.2639 C   0  0  0  0  0  0
    4.3126  -34.1175   21.8058 C   0  0  0  0  0  0
    4.8549  -33.0574   22.0897 O   0  0  0  0  0  0
    2.9747  -36.4785   21.0172 N   0  0  0  0  0  0
    3.3654  -35.5620   20.0206 C   0  0  0  0  0  0
    3.1618  -35.7560   18.8237 O   0  0  0  0  0  0
    4.0081  -34.4206   20.4762 N   0  0  0  0  0  0
    2.3151  -37.7188   20.5359 C   0  0  0  0  0  0
    3.2017  -38.5242   19.7673 O   0  0  0  0  0  0
    2.5141  -39.6043   19.1287 C   0  0  0  0  0  0
    3.4645  -40.4262   18.2936 C   0  0  0  0  0  0
    4.2757  -33.7601   19.7970 H   0  0  0  0  0  0
  1  2  1  0  0  0
  1  6  1  0  0  0
  1  7  1  0  0  0
  2  3  1  0  0  0
  3  4  1  0  0  0
  4  5  1  0  0  0
  5  6  1  0  0  0
  7  8  1  0  0  0
  8  9  2  0  0  0
  8 15  1  0  0  0
  9 10  1  0  0  0
  9 13  1  0  0  0
 10 11  1  0  0  0
 10 12  1  0  0  0
 13 14  2  0  0  0
 13 18  1  0  0  0
 15 16  1  0  0  0
 15 19  1  0  0  0
 16 17  2  0  0  0
 16 18  1  0  0  0
 18 23  1  0  0  0
 19 20  1  0  0  0
 20 21  1  0  0  0
 21 22  1  0  0  0
M  END
>  <CHROM.0>
1.13519251,-177.72846938,-32.54337730

>  <CHROM.1>
-177.76008725,101.65158530,-101.81501112,-112.50763728,-170.69527585,178.66532035
2.57478835,-36.41113277,22.43080592,2.31122209,0.71153901,0.90195190

>  <FORMUL>
      612    C16 H26 N2 O3 S1

>  <HET>
 612  A 999      22

>  <HETNAM>
     612 6-(cyclohexylsulfanyl)-1-(ethoxymethyl)-5-(1-methylethy
   2 612 l)pyrimidine-2,4(1H,3H)-dione

>  <HETSYN>
     612 TNK-6123

>  <Name>
612.pdb

>  <RI>
0

>  <Rbt.Current_Directory>
/home/malgorzata/Desktop/rDOCK_IFD/Wyniki/9_hiv_rt/IFD

>  <Rbt.Executable>
rbdock ($Id: //depot/dev/client3/rdock/2013.1/src/exe/rbdock.cxx#4 $)

>  <Rbt.Library>
libRbt.so (2013.1, Build901 2013/11/27)

>  <Rbt.Parameter_File>
/home/malgorzata/Desktop/rDock_2013.1_src/data/scripts/hard_docking.prm

>  <Rbt.Receptor>
cavity.prm

>  <SCORE>
-8.96912

>  <SCORE.INTER>
-8.74194

>  <SCORE.INTER.CONST>
1

>  <SCORE.INTER.POLAR>
-0.375611

>  <SCORE.INTER.REPUL>
0

>  <SCORE.INTER.ROT>
6

>  <SCORE.INTER.VDW>
-18.8649

>  <SCORE.INTER.norm>
-0.397361

>  <SCORE.INTRA>
-2.01644

>  <SCORE.INTRA.DIHEDRAL>
-6.52765

>  <SCORE.INTRA.DIHEDRAL.0>
11.8882

>  <SCORE.INTRA.POLAR>
0

>  <SCORE.INTRA.POLAR.0>
0

>  <SCORE.INTRA.REPUL>
0

>  <SCORE.INTRA.REPUL.0>
0

>  <SCORE.INTRA.VDW>
1.24739

>  <SCORE.INTRA.VDW.0>
-3.04122

>  <SCORE.INTRA.norm>
-0.0916563

>  <SCORE.RESTR>
1.47659

>  <SCORE.RESTR.CAVITY>
1.47659

>  <SCORE.RESTR.norm>
0.0671178

>  <SCORE.SYSTEM>
0.312673

>  <SCORE.SYSTEM.CONST>
0

>  <SCORE.SYSTEM.DIHEDRAL>
1.39967

>  <SCORE.SYSTEM.VDW>
-0.387163

>  <SCORE.SYSTEM.norm>
0.0142124

>  <SCORE.heavy>
22

>  <SCORE.norm>
-0.407687

$$$$
612.pdb
  rDOCK(R)          3D
libRbt.so/2013.1/901 2013/11/27
 23 24  0  0  0  0  0  0  0  0999 V2000
    2.8909  -36.6334   21.8134 C   0  0  0  0  0  0
    2.9375  -38.0726   22.3050 C   0  0  0  0  0  0
    3.8449  -38.9081   21.4406 C   0  0  0  0  0  0
    3.4019  -38.8542   19.9818 C   0  0  0  0  0  0
    3.3727  -37.4125   19.4911 C   0  0  0  0  0  0
    2.4469  -36.5874   20.3579 C   0  0  0  0  0  0
    1.6171  -35.8140   22.8370 S   0  0  0  0  0  0
    2.3097  -35.5620   24.5445 C   0  0  0  0  0  0
    1.6514  -36.0497   25.6648 C   0  0  0  0  0  0
    0.4973  -37.0689   25.6231 C   0  0  0  0  0  0
   -0.7986  -36.5761   26.2227 C   0  0  0  0  0  0
    0.8874  -38.4398   26.0587 C   0  0  0  0  0  0
    2.1757  -35.7602   26.9887 C   0  0  0  0  0  0
    1.6271  -36.1060   28.0270 O   0  0  0  0  0  0
    3.4926  -34.8102   24.6758 N   0  0  0  0  0  0
    4.0514  -34.5175   25.9359 C   0  0  0  0  0  0
    5.0946  -33.8804   26.0676 O   0  0  0  0  0  0
    3.3504  -35.0044   27.0290 N   0  0  0  0  0  0
    4.2539  -34.3208   23.4986 C   0  0  0  0  0  0
    5.1328  -35.3166   22.9869 O   0  0  0  0  0  0
    5.8100  -34.8680   21.8090 C   0  0  0  0  0  0
    6.6249  -35.9829   21.2014 C   0  0  0  0  0  0
    3.7157  -34.7977   27.9194 H   0  0  0  0  0  0
  1  2  1  0  0  0
  1  6  1  0  0  0
  1  7  1  0  0  0
  2  3  1  0  0  0
  3  4  1  0  0  0
  4  5  1  0  0  0
  5  6  1  0  0  0
  7  8  1  0  0  0
  8  9  2  0  0  0
  8 15  1  0  0  0
  9 10  1  0  0  0
  9 13  1  0  0  0
 10 11  1  0  0  0
 10 12  1  0  0  0
 13 14  2  0  0  0
 13 18  1  0  0  0
 15 16  1  0  0  0
 15 19  1  0  0  0
 16 17  2  0  0  0
 16 18  1  0  0  0
 18 23  1  0  0  0
 19 20  1  0  0  0
 20 21  1  0  0  0
 21 22  1  0  0  0
M  END
>  <CHROM.0>
-176.14422780,-178.09828997,-31.87368723

>  <CHROM.1>
73.28783852,-124.65880335,-120.20604458,-83.71800355,176.77433701,-174.10291611
2.98410427,-36.18221230,23.79282356,1.12585018,-0.56898450,-2.01019100

>  <FORMUL>
      612    C16 H26 N2 O3 S1

>  <HET>
 612  A 999      22

>  <HETNAM>
     612 6-(cyclohexylsulfanyl)-1-(ethoxymethyl)-5-(1-methylethy
   2 612 l)pyrimidine-2,4(1H,3H)-dione

>  <HETSYN>
     612 TNK-6123

>  <Name>
612.pdb

>  <RI>
0

>  <Rbt.Current_Directory>
/home/malgorzata/Desktop/rDOCK_IFD/Wyniki/9_hiv_rt/IFD

>  <Rbt.Executable>
rbdock ($Id: //depot/dev/client3/rdock/2013.1/src/exe/rbdock.cxx#4 $)

>  <Rbt.Library>
libRbt.so (2013.1, Build901 2013/11/27)

>  <Rbt.Parameter_File>
/home/malgorzata/Desktop/rDock_2013.1_src/data/scripts/hard_docking.prm

>  <Rbt.Receptor>
cavity.prm

>  <SCORE>
-11.8708

>  <SCORE.INTER>
-8.65417

>  <SCORE.INTER.CONST>
1

>  <SCORE.INTER.POLAR>
0

>  <SCORE.INTER.REPUL>
0

>  <SCORE.INTER.ROT>
6

>  <SCORE.INTER.VDW>
-20.0542

>  <SCORE.INTER.norm>
-0.393371

>  <SCORE.INTRA>
-3.49249

>  <SCORE.INTRA.DIHEDRAL>
-6.19013

>  <SCORE.INTRA.DIHEDRAL.0>
11.8882

>  <SCORE.INTRA.POLAR>
0

>  <SCORE.INTRA.POLAR.0>
0

>  <SCORE.INTRA.REPUL>
0

>  <SCORE.INTRA.REPUL.0>
0

>  <SCORE.INTRA.VDW>
-0.397428

>  <SCORE.INTRA.VDW.0>
-3.04122

>  <SCORE.INTRA.norm>
-0.15875

>  <SCORE.RESTR>
0

>  <SCORE.RESTR.CAVITY>
0

>  <SCORE.RESTR.norm>
0

>  <SCORE.SYSTEM>
0.275863

>  <SCORE.SYSTEM.CONST>
0

>  <SCORE.SYSTEM.DIHEDRAL>
1.36554

>  <SCORE.SYSTEM.REPUL>
0.00365069

>  <SCORE.SYSTEM.VDW>
-0.42516

>  <SCORE.SYSTEM.norm>
0.0125392

>  <SCORE.heavy>
22

>  <SCORE.norm>
-0.539582

$$$$
612.pdb
  rDOCK(R)          3D
libRbt.so/2013.1/901 2013/11/27
 23 24  0  0  0  0  0  0  0  0999 V2000
    5.9247  -33.3114   20.8897 C   0  0  0  0  0  0
    5.9024  -32.3949   22.1040 C   0  0  0  0  0  0
    5.8101  -30.9505   21.6873 C   0  0  0  0  0  0
    6.9625  -30.5813   20.7583 C   0  0  0  0  0  0
    6.9697  -31.4919   19.5373 C   0  0  0  0  0  0
    7.0776  -32.9381   19.9683 C   0  0  0  0  0  0
    6.2294  -34.9870   21.5543 S   0  0  0  0  0  0
    5.0498  -35.2832   22.9613 C   0  0  0  0  0  0
    3.8360  -35.9243   22.7568 C   0  0  0  0  0  0
    3.4656  -36.7036   21.4810 C   0  0  0  0  0  0
    2.2772  -36.1515   20.7295 C   0  0  0  0  0  0
    3.4363  -38.1824   21.6648 C   0  0  0  0  0  0
    2.9015  -36.0620   23.8610 C   0  0  0  0  0  0
    1.7905  -36.5645   23.7519 O   0  0  0  0  0  0
    5.3956  -34.7861   24.2321 N   0  0  0  0  0  0
    4.5324  -34.9103   25.3391 C   0  0  0  0  0  0
    4.8274  -34.5008   26.4601 O   0  0  0  0  0  0
    3.3214  -35.5371   25.0861 N   0  0  0  0  0  0
    6.7080  -34.1456   24.5010 C   0  0  0  0  0  0
    7.7672  -34.8038   23.8151 O   0  0  0  0  0  0
    9.0222  -34.1516   24.0322 C   0  0  0  0  0  0
   10.1080  -34.7872   23.1996 C   0  0  0  0  0  0
    2.6973  -35.6203   25.8428 H   0  0  0  0  0  0
  1  2  1  0  0  0
  1  6  1  0  0  0
  1  7  1  0  0  0
  2  3  1  0  0  0
  3  4  1  0  0  0
  4  5  1  0  0  0
  5  6  1  0  0  0
  7  8  1  0  0  0
  8  9  2  0  0  0
  8 15  1  0  0  0
  9 10  1  0  0  0
  9 13  1  0  0  0
 10 11  1  0  0  0
 10 12  1  0  0  0
 13 14  2  0  0  0
 13 18  1  0  0  0
 15 16  1  0  0  0
 15 19  1  0  0  0
 16 17  2  0  0  0
 16 18  1  0  0  0
 18 23  1  0  0  0
 19 20  1  0  0  0
 20 21  1  0  0  0
 21 22  1  0  0  0
M  END
>  <CHROM.0>
-176.74306422,-164.33314058,-174.79406769

>  <CHROM.1>
48.99481002,94.31348379,-118.43381419,-38.70048179,177.61016879,-174.85902385
5.48457064,-34.53941520,22.69990069,0.56513564,-0.55108643,-1.15029100

>  <FORMUL>
      612    C16 H26 N2 O3 S1

>  <HET>
 612  A 999      22

>  <HETNAM>
     612 6-(cyclohexylsulfanyl)-1-(ethoxymethyl)-5-(1-methylethy
   2 612 l)pyrimidine-2,4(1H,3H)-dione

>  <HETSYN>
     612 TNK-6123

>  <Name>
612.pdb

>  <RI>
0

>  <Rbt.Current_Directory>
/home/malgorzata/Desktop/rDOCK_IFD/Wyniki/9_hiv_rt/IFD

>  <Rbt.Executable>
rbdock ($Id: //depot/dev/client3/rdock/2013.1/src/exe/rbdock.cxx#4 $)

>  <Rbt.Library>
libRbt.so (2013.1, Build901 2013/11/27)

>  <Rbt.Parameter_File>
/home/malgorzata/Desktop/rDock_2013.1_src/data/scripts/hard_docking.prm

>  <Rbt.Receptor>
cavity.prm

>  <SCORE>
-9.14663

>  <SCORE.INTER>
-8.49682

>  <SCORE.INTER.CONST>
1

>  <SCORE.INTER.POLAR>
0

>  <SCORE.INTER.REPUL>
0

>  <SCORE.INTER.ROT>
6

>  <SCORE.INTER.VDW>
-19.8968

>  <SCORE.INTER.norm>
-0.386219

>  <SCORE.INTRA>
-1.99259

>  <SCORE.INTRA.DIHEDRAL>
-6.71548

>  <SCORE.INTRA.DIHEDRAL.0>
11.8882

>  <SCORE.INTRA.POLAR>
0

>  <SCORE.INTRA.POLAR.0>
0

>  <SCORE.INTRA.REPUL>
0

>  <SCORE.INTRA.REPUL.0>
0

>  <SCORE.INTRA.VDW>
1.36514

>  <SCORE.INTRA.VDW.0>
-3.04122

>  <SCORE.INTRA.norm>
-0.0905724

>  <SCORE.RESTR>
1.53255

>  <SCORE.RESTR.CAVITY>
1.53255

>  <SCORE.RESTR.norm>
0.0696615

>  <SCORE.SYSTEM>
-0.189773

>  <SCORE.SYSTEM.CONST>
0

>  <SCORE.SYSTEM.DIHEDRAL>
0.401176

>  <SCORE.SYSTEM.VDW>
-0.390361

>  <SCORE.SYSTEM.norm>
-0.00862607

>  <SCORE.heavy>
22

>  <SCORE.norm>
-0.415756

$$$$
612.pdb
  rDOCK(R)          3D
libRbt.so/2013.1/901 2013/11/27
 23 24  0  0  0  0  0  0  0  0999 V2000
   -3.3612  -34.7236   24.8512 C   0  0  0  0  0  0
   -3.8981  -33.3042   24.9613 C   0  0  0  0  0  0
   -4.2144  -32.7408   23.6008 C   0  0  0  0  0  0
   -2.9837  -32.7797   22.7002 C   0  0  0  0  0  0
   -2.4606  -34.2054   22.5813 C   0  0  0  0  0  0
   -2.1327  -34.7545   23.9524 C   0  0  0  0  0  0
   -2.8538  -35.1814   26.5468 S   0  0  0  0  0  0
   -1.0005  -35.3309   26.5840 C   0  0  0  0  0  0
   -0.3781  -36.5662   26.4705 C   0  0  0  0  0  0
   -1.0814  -37.8582   26.0141 C   0  0  0  0  0  0
   -1.4042  -37.9111   24.5393 C   0  0  0  0  0  0
   -2.2052  -38.2780   26.8987 C   0  0  0  0  0  0
    1.0673  -36.6560   26.5903 C   0  0  0  0  0  0
    1.6874  -37.7110   26.5566 O   0  0  0  0  0  0
   -0.2450  -34.1611   26.7901 N   0  0  0  0  0  0
    1.1600  -34.1924   26.8953 C   0  0  0  0  0  0
    1.8364  -33.1782   27.0543 O   0  0  0  0  0  0
    1.7394  -35.4486   26.7985 N   0  0  0  0  0  0
   -0.8714  -32.8166   26.8598 C   0  0  0  0  0  0
   -1.4118  -32.5520   28.1496 O   0  0  0  0  0  0
   -0.3826  -32.3965   29.1314 C   0  0  0  0  0  0
   -0.9761  -32.1450   30.4954 C   0  0  0  0  0  0
    2.7190  -35.4942   26.8848 H   0  0  0  0  0  0
  1  2  1  0  0  0
  1  6  1  0  0  0
  1  7  1  0  0  0
  2  3  1  0  0  0
  3  4  1  0  0  0
  4  5  1  0  0  0
  5  6  1  0  0  0
  7  8  1  0  0  0
  8  9  2  0  0  0
  8 15  1  0  0  0
  9 10  1  0  0  0
  9 13  1  0  0  0
 10 11  1  0  0  0
 10 12  1  0  0  0
 13 14  2  0  0  0
 13 18  1  0  0  0
 15 16  1  0  0  0
 15 19  1  0  0  0
 16 17  2  0  0  0
 16 18  1  0  0  0
 18 23  1  0  0  0
 19 20  1  0  0  0
 20 21  1  0  0  0
 21 22  1  0  0  0
M  END
>  <CHROM.0>
-166.21360476,-165.23641827,-166.85698022

>  <CHROM.1>
-111.92992295,-97.67888003,72.89633804,81.63307070,68.97144574,-178.84613415
-1.18938069,-34.76801573,26.18537385,2.88510930,0.76281748,-2.64558523

>  <FORMUL>
      612    C16 H26 N2 O3 S1

>  <HET>
 612  A 999      22

>  <HETNAM>
     612 6-(cyclohexylsulfanyl)-1-(ethoxymethyl)-5-(1-methylethy
   2 612 l)pyrimidine-2,4(1H,3H)-dione

>  <HETSYN>
     612 TNK-6123

>  <Name>
612.pdb

>  <RI>
0

>  <Rbt.Current_Directory>
/home/malgorzata/Desktop/rDOCK_IFD/Wyniki/9_hiv_rt/IFD

>  <Rbt.Executable>
rbdock ($Id: //depot/dev/client3/rdock/2013.1/src/exe/rbdock.cxx#4 $)

>  <Rbt.Library>
libRbt.so (2013.1, Build901 2013/11/27)

>  <Rbt.Parameter_File>
/home/malgorzata/Desktop/rDock_2013.1_src/data/scripts/hard_docking.prm

>  <Rbt.Receptor>
cavity.prm

>  <SCORE>
-10.4747

>  <SCORE.INTER>
-8.88578

>  <SCORE.INTER.CONST>
1

>  <SCORE.INTER.POLAR>
0

>  <SCORE.INTER.REPUL>
0

>  <SCORE.INTER.ROT>
6

>  <SCORE.INTER.VDW>
-20.2858

>  <SCORE.INTER.norm>
-0.403899

>  <SCORE.INTRA>
-1.56897

>  <SCORE.INTRA.DIHEDRAL>
-3.95191

>  <SCORE.INTRA.DIHEDRAL.0>
11.8882

>  <SCORE.INTRA.POLAR>
0

>  <SCORE.INTRA.POLAR.0>
0

>  <SCORE.INTRA.REPUL>
0

>  <SCORE.INTRA.REPUL.0>
0

>  <SCORE.INTRA.VDW>
0.406983

>  <SCORE.INTRA.VDW.0>
-3.04122

>  <SCORE.INTRA.norm>
-0.071317

>  <SCORE.RESTR>
0

>  <SCORE.RESTR.CAVITY>
0

>  <SCORE.RESTR.norm>
0

>  <SCORE.SYSTEM>
-0.0199112

>  <SCORE.SYSTEM.CONST>
0

>  <SCORE.SYSTEM.DIHEDRAL>
0.823967

>  <SCORE.SYSTEM.VDW>
-0.431895

>  <SCORE.SYSTEM.norm>
-0.000905054

>  <SCORE.heavy>
22

>  <SCORE.norm>
-0.476121

$$$$
612.pdb
  rDOCK(R)          3D
libRbt.so/2013.1/901 2013/11/27
 23 24  0  0  0  0  0  0  0  0999 V2000
    0.7883  -36.8105   24.1533 C   0  0  0  0  0  0
   -0.1804  -35.9167   24.9135 C   0  0  0  0  0  0
   -1.4407  -35.6909   24.1203 C   0  0  0  0  0  0
   -1.1196  -35.0931   22.7540 C   0  0  0  0  0  0
   -0.1623  -36.0001   21.9919 C   0  0  0  0  0  0
    1.1051  -36.2071   22.7920 C   0  0  0  0  0  0
    2.3183  -36.8260   25.1537 S   0  0  0  0  0  0
    2.8494  -35.0668   25.4402 C   0  0  0  0  0  0
    2.4189  -34.3600   26.5544 C   0  0  0  0  0  0
    1.7420  -34.9967   27.7828 C   0  0  0  0  0  0
    0.3615  -34.4639   28.0866 C   0  0  0  0  0  0
    2.6306  -35.1004   28.9749 C   0  0  0  0  0  0
    2.7829  -32.9610   26.7023 C   0  0  0  0  0  0
    2.4003  -32.2536   27.6252 O   0  0  0  0  0  0
    3.6543  -34.4499   24.4640 N   0  0  0  0  0  0
    4.0494  -33.1014   24.5699 C   0  0  0  0  0  0
    4.7692  -32.5532   23.7375 O   0  0  0  0  0  0
    3.5795  -32.4262   25.6864 N   0  0  0  0  0  0
    4.1798  -35.1898   23.2887 C   0  0  0  0  0  0
    5.5094  -35.6491   23.5051 O   0  0  0  0  0  0
    6.4690  -34.6113   23.2832 C   0  0  0  0  0  0
    6.7184  -34.4178   21.8079 C   0  0  0  0  0  0
    3.8315  -31.4783   25.7715 H   0  0  0  0  0  0
  1  2  1  0  0  0
  1  6  1  0  0  0
  1  7  1  0  0  0
  2  3  1  0  0  0
  3  4  1  0  0  0
  4  5  1  0  0  0
  5  6  1  0  0  0
  7  8  1  0  0  0
  8  9  2  0  0  0
  8 15  1  0  0  0
  9 10  1  0  0  0
  9 13  1  0  0  0
 10 11  1  0  0  0
 10 12  1  0  0  0
 13 14  2  0  0  0
 13 18  1  0  0  0
 15 16  1  0  0  0
 15 19  1  0  0  0
 16 17  2  0  0  0
 16 18  1  0  0  0
 18 23  1  0  0  0
 19 20  1  0  0  0
 20 21  1  0  0  0
 21 22  1  0  0  0
M  END
>  <CHROM.0>
-42.60044860,0.23751177,-31.89323880

>  <CHROM.1>
-54.29088035,90.88315238,-121.25089944,-96.54931989,-80.78151349,-78.93300459
2.54490531,-34.83030304,24.88362262,2.92525043,0.35238996,1.19537269

>  <FORMUL>
      612    C16 H26 N2 O3 S1

>  <HET>
 612  A 999      22

>  <HETNAM>
     612 6-(cyclohexylsulfanyl)-1-(ethoxymethyl)-5-(1-methylethy
   2 612 l)pyrimidine-2,4(1H,3H)-dione

>  <HETSYN>
     612 TNK-6123

>  <Name>
612.pdb

>  <RI>
0

>  <Rbt.Current_Directory>
/home/malgorzata/Desktop/rDOCK_IFD/Wyniki/9_hiv_rt/IFD

>  <Rbt.Executable>
rbdock ($Id: //depot/dev/client3/rdock/2013.1/src/exe/rbdock.cxx#4 $)

>  <Rbt.Library>
libRbt.so (2013.1, Build901 2013/11/27)

>  <Rbt.Parameter_File>
/home/malgorzata/Desktop/rDock_2013.1_src/data/scripts/hard_docking.prm

>  <Rbt.Receptor>
cavity.prm

>  <SCORE>
-21.9994

>  <SCORE.INTER>
-5.22888

>  <SCORE.INTER.CONST>
1

>  <SCORE.INTER.POLAR>
0

>  <SCORE.INTER.REPUL>
0

>  <SCORE.INTER.ROT>
6

>  <SCORE.INTER.VDW>
-16.6289

>  <SCORE.INTER.norm>
-0.237676

>  <SCORE.INTRA>
0.763112

>  <SCORE.INTRA.DIHEDRAL>
-3.19536

>  <SCORE.INTRA.DIHEDRAL.0>
11.8882

>  <SCORE.INTRA.POLAR>
0

>  <SCORE.INTRA.POLAR.0>
0

>  <SCORE.INTRA.REPUL>
0

>  <SCORE.INTRA.REPUL.0>
0

>  <SCORE.INTRA.VDW>
2.36079

>  <SCORE.INTRA.VDW.0>
-3.04122

>  <SCORE.INTRA.norm>
0.0346869

>  <SCORE.RESTR>
0

>  <SCORE.RESTR.CAVITY>
0

>  <SCORE.RESTR.norm>
0

>  <SCORE.SYSTEM>
-17.5337

>  <SCORE.SYSTEM.CONST>
0

>  <SCORE.SYSTEM.DIHEDRAL>
3.55298

>  <SCORE.SYSTEM.REPUL>
0.0034209

>  <SCORE.SYSTEM.VDW>
-19.3273

>  <SCORE.SYSTEM.norm>
-0.796986

>  <SCORE.heavy>
22

>  <SCORE.norm>
-0.999975

$$$$
612.pdb
  rDOCK(R)          3D
libRbt.so/2013.1/901 2013/11/27
 23 24  0  0  0  0  0  0  0  0999 V2000
    2.1800  -37.4726   22.1332 C   0  0  0  0  0  0
    1.6443  -37.5709   20.7125 C   0  0  0  0  0  0
    2.2552  -38.7403   19.9860 C   0  0  0  0  0  0
    3.7772  -38.6368   19.9788 C   0  0  0  0  0  0
    4.3082  -38.5548   21.4041 C   0  0  0  0  0  0
    3.6988  -37.3683   22.1181 C   0  0  0  0  0  0
    1.4959  -35.9145   22.8011 S   0  0  0  0  0  0
    2.2758  -35.5947   24.4589 C   0  0  0  0  0  0
    1.6464  -35.9808   25.6341 C   0  0  0  0  0  0
    0.4451  -36.9421   25.7045 C   0  0  0  0  0  0
    0.7394  -38.3510   25.2459 C   0  0  0  0  0  0
   -0.8163  -36.3727   25.1512 C   0  0  0  0  0  0
    2.2428  -35.6384   26.9142 C   0  0  0  0  0  0
    1.7258  -35.8935   27.9942 O   0  0  0  0  0  0
    3.4973  -34.8960   24.4932 N   0  0  0  0  0  0
    4.1254  -34.5559   25.7080 C   0  0  0  0  0  0
    5.2022  -33.9646   25.7558 O   0  0  0  0  0  0
    3.4522  -34.9408   26.8578 N   0  0  0  0  0  0
    4.2270  -34.5167   23.2568 C   0  0  0  0  0  0
    5.5503  -35.0405   23.2429 O   0  0  0  0  0  0
    6.2246  -34.7387   22.0175 C   0  0  0  0  0  0
    6.6273  -33.2855   21.9708 C   0  0  0  0  0  0
    3.8666  -34.6992   27.7175 H   0  0  0  0  0  0
  1  2  1  0  0  0
  1  6  1  0  0  0
  1  7  1  0  0  0
  2  3  1  0  0  0
  3  4  1  0  0  0
  4  5  1  0  0  0
  5  6  1  0  0  0
  7  8  1  0  0  0
  8  9  2  0  0  0
  8 15  1  0  0  0
  9 10  1  0  0  0
  9 13  1  0  0  0
 10 11  1  0  0  0
 10 12  1  0  0  0
 13 14  2  0  0  0
 13 18  1  0  0  0
 15 16  1  0  0  0
 15 19  1  0  0  0
 16 17  2  0  0  0
 16 18  1  0  0  0
 18 23  1  0  0  0
 19 20  1  0  0  0
 20 21  1  0  0  0
 21 22  1  0  0  0
M  END
>  <CHROM.0>
-177.61287288,-1.97062270,-179.03958952

>  <CHROM.1>
-172.65602202,-95.57869400,64.59425032,-122.84448160,176.65701931,74.15555858
2.97652018,-36.10661429,23.74374825,1.22913924,-0.55591561,-2.04269958

>  <FORMUL>
      612    C16 H26 N2 O3 S1

>  <HET>
 612  A 999      22

>  <HETNAM>
     612 6-(cyclohexylsulfanyl)-1-(ethoxymethyl)-5-(1-methylethy
   2 612 l)pyrimidine-2,4(1H,3H)-dione

>  <HETSYN>
     612 TNK-6123

>  <Name>
612.pdb

>  <RI>
0

>  <Rbt.Current_Directory>
/home/malgorzata/Desktop/rDOCK_IFD/Wyniki/9_hiv_rt/IFD

>  <Rbt.Executable>
rbdock ($Id: //depot/dev/client3/rdock/2013.1/src/exe/rbdock.cxx#4 $)

>  <Rbt.Library>
libRbt.so (2013.1, Build901 2013/11/27)

>  <Rbt.Parameter_File>
/home/malgorzata/Desktop/rDock_2013.1_src/data/scripts/hard_docking.prm

>  <Rbt.Receptor>
cavity.prm

>  <SCORE>
-31.2606

>  <SCORE.INTER>
-8.32554

>  <SCORE.INTER.CONST>
1

>  <SCORE.INTER.POLAR>
0

>  <SCORE.INTER.REPUL>
0

>  <SCORE.INTER.ROT>
6

>  <SCORE.INTER.VDW>
-19.7255

>  <SCORE.INTER.norm>
-0.378434

>  <SCORE.INTRA>
-1.07201

>  <SCORE.INTRA.DIHEDRAL>
-5.49895

>  <SCORE.INTRA.DIHEDRAL.0>
11.8882

>  <SCORE.INTRA.POLAR>
0

>  <SCORE.INTRA.POLAR.0>
0

>  <SCORE.INTRA.REPUL>
0

>  <SCORE.INTRA.REPUL.0>
0

>  <SCORE.INTRA.VDW>
1.67747

>  <SCORE.INTRA.VDW.0>
-3.04122

>  <SCORE.INTRA.norm>
-0.0487275

>  <SCORE.RESTR>
0

>  <SCORE.RESTR.CAVITY>
0

>  <SCORE.RESTR.norm>
0

>  <SCORE.SYSTEM>
-21.863

>  <SCORE.SYSTEM.CONST>
0

>  <SCORE.SYSTEM.DIHEDRAL>
0.0146441

>  <SCORE.SYSTEM.POLAR>
-1.19145

>  <SCORE.SYSTEM.VDW>
-17.8194

>  <SCORE.SYSTEM.norm>
-0.993774

>  <SCORE.heavy>
22

>  <SCORE.norm>
-1.42094

$$$$
612.pdb
  rDOCK(R)          3D
libRbt.so/2013.1/901 2013/11/27
 23 24  0  0  0  0  0  0  0  0999 V2000
    6.6720  -39.6321   19.7147 C   0  0  0  0  0  0
    6.4653  -41.1365   19.8115 C   0  0  0  0  0  0
    6.9778  -41.8312   18.5773 C   0  0  0  0  0  0
    6.3036  -41.2772   17.3260 C   0  0  0  0  0  0
    6.5276  -39.7738   17.2265 C   0  0  0  0  0  0
    5.9956  -39.0863   18.4648 C   0  0  0  0  0  0
    5.8346  -38.9338   21.1821 S   0  0  0  0  0  0
    5.2265  -37.2291   20.7543 C   0  0  0  0  0  0
    3.8691  -36.9510   20.6738 C   0  0  0  0  0  0
    2.7567  -37.8772   21.2002 C   0  0  0  0  0  0
    2.9333  -38.3205   22.6334 C   0  0  0  0  0  0
    2.3945  -38.9778   20.2627 C   0  0  0  0  0  0
    3.4300  -35.6313   20.2529 C   0  0  0  0  0  0
    2.2550  -35.3219   20.1042 O   0  0  0  0  0  0
    6.1823  -36.2398   20.4556 N   0  0  0  0  0  0
    5.8082  -34.9399   20.0603 C   0  0  0  0  0  0
    6.6295  -34.0582   19.8161 O   0  0  0  0  0  0
    4.4433  -34.7112   19.9714 N   0  0  0  0  0  0
    7.6412  -36.4842   20.5852 C   0  0  0  0  0  0
    8.2823  -36.5391   19.3157 O   0  0  0  0  0  0
    9.6815  -36.8099   19.4422 C   0  0  0  0  0  0
   10.4151  -35.6044   19.9758 C   0  0  0  0  0  0
    4.1609  -33.8136   19.6818 H   0  0  0  0  0  0
  1  2  1  0  0  0
  1  6  1  0  0  0
  1  7  1  0  0  0
  2  3  1  0  0  0
  3  4  1  0  0  0
  4  5  1  0  0  0
  5  6  1  0  0  0
  7  8  1  0  0  0
  8  9  2  0  0  0
  8 15  1  0  0  0
  9 10  1  0  0  0
  9 13  1  0  0  0
 10 11  1  0  0  0
 10 12  1  0  0  0
 13 14  2  0  0  0
 13 18  1  0  0  0
 15 16  1  0  0  0
 15 19  1  0  0  0
 16 17  2  0  0  0
 16 18  1  0  0  0
 18 23  1  0  0  0
 19 20  1  0  0  0
 20 21  1  0  0  0
 21 22  1  0  0  0
M  END
>  <CHROM.0>
-174.51593573,-1.87451014,-166.65349523

>  <CHROM.1>
-150.06138894,112.81630160,51.77850706,110.11854571,-178.45841744,-72.69555734
5.78955566,-37.65588843,19.96070577,0.84040886,-0.26288820,-2.92684480

>  <FORMUL>
      612    C16 H26 N2 O3 S1

>  <HET>
 612  A 999      22

>  <HETNAM>
     612 6-(cyclohexylsulfanyl)-1-(ethoxymethyl)-5-(1-methylethy
   2 612 l)pyrimidine-2,4(1H,3H)-dione

>  <HETSYN>
     612 TNK-6123

>  <Name>
612.pdb

>  <RI>
0

>  <Rbt.Current_Directory>
/home/malgorzata/Desktop/rDOCK_IFD/Wyniki/9_hiv_rt/IFD

>  <Rbt.Executable>
rbdock ($Id: //depot/dev/client3/rdock/2013.1/src/exe/rbdock.cxx#4 $)

>  <Rbt.Library>
libRbt.so (2013.1, Build901 2013/11/27)

>  <Rbt.Parameter_File>
/home/malgorzata/Desktop/rDock_2013.1_src/data/scripts/hard_docking.prm

>  <Rbt.Receptor>
cavity.prm

>  <SCORE>
-1.31989

>  <SCORE.INTER>
4.20832

>  <SCORE.INTER.CONST>
1

>  <SCORE.INTER.POLAR>
-0.478736

>  <SCORE.INTER.REPUL>
0.0336914

>  <SCORE.INTER.ROT>
6

>  <SCORE.INTER.VDW>
-5.73243

>  <SCORE.INTER.norm>
0.191287

>  <SCORE.INTRA>
-1.1693

>  <SCORE.INTRA.DIHEDRAL>
-4.93817

>  <SCORE.INTRA.DIHEDRAL.0>
11.8882

>  <SCORE.INTRA.POLAR>
0

>  <SCORE.INTRA.POLAR.0>
0

>  <SCORE.INTRA.REPUL>
0

>  <SCORE.INTRA.REPUL.0>
0

>  <SCORE.INTRA.VDW>
1.29979

>  <SCORE.INTRA.VDW.0>
-3.04122

>  <SCORE.INTRA.norm>
-0.0531498

>  <SCORE.RESTR>
17.4321

>  <SCORE.RESTR.CAVITY>
17.4321

>  <SCORE.RESTR.norm>
0.792368

>  <SCORE.SYSTEM>
-21.791

>  <SCORE.SYSTEM.CONST>
0

>  <SCORE.SYSTEM.DIHEDRAL>
0.30185

>  <SCORE.SYSTEM.POLAR>
-1.15661

>  <SCORE.SYSTEM.VDW>
-18.0095

>  <SCORE.SYSTEM.norm>
-0.990501

>  <SCORE.heavy>
22

>  <SCORE.norm>
-0.0599952

$$$$
612.pdb
  rDOCK(R)          3D
libRbt.so/2013.1/901 2013/11/27
 23 24  0  0  0  0  0  0  0  0999 V2000
    7.5334  -34.5502   23.6382 C   0  0  0  0  0  0
    8.2738  -34.3034   22.3321 C   0  0  0  0  0  0
    9.6504  -34.9133   22.3694 C   0  0  0  0  0  0
   10.4502  -34.3703   23.5496 C   0  0  0  0  0  0
    9.7115  -34.6346   24.8551 C   0  0  0  0  0  0
    8.3366  -34.0047   24.8109 C   0  0  0  0  0  0
    5.9805  -33.5954   23.5016 S   0  0  0  0  0  0
    4.5630  -34.7148   23.9445 C   0  0  0  0  0  0
    3.9236  -34.6112   25.1720 C   0  0  0  0  0  0
    4.0869  -33.4266   26.1428 C   0  0  0  0  0  0
    4.6790  -33.7900   27.4842 C   0  0  0  0  0  0
    2.8882  -32.5447   26.2252 C   0  0  0  0  0  0
    2.8774  -35.5580   25.5191 C   0  0  0  0  0  0
    2.3030  -35.5692   26.6001 O   0  0  0  0  0  0
    4.1927  -35.7121   23.0226 N   0  0  0  0  0  0
    3.1725  -36.6427   23.3039 C   0  0  0  0  0  0
    2.8224  -37.5065   22.5021 O   0  0  0  0  0  0
    2.5754  -36.5177   24.5494 N   0  0  0  0  0  0
    4.8151  -35.8177   21.6786 C   0  0  0  0  0  0
    3.8974  -35.4822   20.6438 O   0  0  0  0  0  0
    4.4990  -35.5885   19.3499 C   0  0  0  0  0  0
    3.5005  -35.2655   18.2660 C   0  0  0  0  0  0
    1.8706  -37.1680   24.7717 H   0  0  0  0  0  0
  1  2  1  0  0  0
  1  6  1  0  0  0
  1  7  1  0  0  0
  2  3  1  0  0  0
  3  4  1  0  0  0
  4  5  1  0  0  0
  5  6  1  0  0  0
  7  8  1  0  0  0
  8  9  2  0  0  0
  8 15  1  0  0  0
  9 10  1  0  0  0
  9 13  1  0  0  0
 10 11  1  0  0  0
 10 12  1  0  0  0
 13 14  2  0  0  0
 13 18  1  0  0  0
 15 16  1  0  0  0
 15 19  1  0  0  0
 16 17  2  0  0  0
 16 18  1  0  0  0
 18 23  1  0  0  0
 19 20  1  0  0  0
 20 21  1  0  0  0
 21 22  1  0  0  0
M  END
>  <CHROM.0>
4.78131044,-169.72888307,-31.35724898

>  <CHROM.1>
130.10452973,104.34304610,-117.94063472,-110.95929373,-179.84252584,178.46148698
5.22851697,-34.89894757,23.57680778,-0.06456470,0.21234276,1.31550992

>  <FORMUL>
      612    C16 H26 N2 O3 S1

>  <HET>
 612  A 999      22

>  <HETNAM>
     612 6-(cyclohexylsulfanyl)-1-(ethoxymethyl)-5-(1-methylethy
   2 612 l)pyrimidine-2,4(1H,3H)-dione

>  <HETSYN>
     612 TNK-6123

>  <Name>
612.pdb

>  <RI>
0

>  <Rbt.Current_Directory>
/home/malgorzata/Desktop/rDOCK_IFD/Wyniki/9_hiv_rt/IFD

>  <Rbt.Executable>
rbdock ($Id: //depot/dev/client3/rdock/2013.1/src/exe/rbdock.cxx#4 $)

>  <Rbt.Library>
libRbt.so (2013.1, Build901 2013/11/27)

>  <Rbt.Parameter_File>
/home/malgorzata/Desktop/rDock_2013.1_src/data/scripts/hard_docking.prm

>  <Rbt.Receptor>
cavity.prm

>  <SCORE>
-8.1488

>  <SCORE.INTER>
-7.29815

>  <SCORE.INTER.CONST>
1

>  <SCORE.INTER.POLAR>
0

>  <SCORE.INTER.REPUL>
0

>  <SCORE.INTER.ROT>
6

>  <SCORE.INTER.VDW>
-18.6981

>  <SCORE.INTER.norm>
-0.331734

>  <SCORE.INTRA>
-1.69463

>  <SCORE.INTRA.DIHEDRAL>
-4.61519

>  <SCORE.INTRA.DIHEDRAL.0>
11.8882

>  <SCORE.INTRA.POLAR>
0

>  <SCORE.INTRA.POLAR.0>
0

>  <SCORE.INTRA.REPUL>
0

>  <SCORE.INTRA.REPUL.0>
0

>  <SCORE.INTRA.VDW>
0.612966

>  <SCORE.INTRA.VDW.0>
-3.04122

>  <SCORE.INTRA.norm>
-0.0770287

>  <SCORE.RESTR>
0.445795

>  <SCORE.RESTR.CAVITY>
0.445795

>  <SCORE.RESTR.norm>
0.0202634

>  <SCORE.SYSTEM>
0.398182

>  <SCORE.SYSTEM.CONST>
0

>  <SCORE.SYSTEM.DIHEDRAL>
1.48428

>  <SCORE.SYSTEM.REPUL>
0.00972481

>  <SCORE.SYSTEM.VDW>
-0.392581

>  <SCORE.SYSTEM.norm>
0.0180992

>  <SCORE.heavy>
22

>  <SCORE.norm>
-0.3704

$$$$
612.pdb
  rDOCK(R)          3D
libRbt.so/2013.1/901 2013/11/27
 23 24  0  0  0  0  0  0  0  0999 V2000
    3.1932  -34.3271   26.7589 C   0  0  0  0  0  0
    3.7328  -34.4653   28.1749 C   0  0  0  0  0  0
    2.6389  -34.2636   29.1904 C   0  0  0  0  0  0
    1.9703  -32.9054   29.0019 C   0  0  0  0  0  0
    1.4184  -32.7795   27.5878 C   0  0  0  0  0  0
    2.5289  -32.9692   26.5779 C   0  0  0  0  0  0
    4.6612  -34.4066   25.6724 S   0  0  0  0  0  0
    4.0874  -34.7405   23.9351 C   0  0  0  0  0  0
    4.7091  -34.1436   22.8472 C   0  0  0  0  0  0
    6.0667  -33.4185   22.9085 C   0  0  0  0  0  0
    6.0880  -32.0658   22.2364 C   0  0  0  0  0  0
    7.2297  -34.2861   22.5678 C   0  0  0  0  0  0
    4.1806  -34.3587   21.5108 C   0  0  0  0  0  0
    4.6361  -33.8269   20.5066 O   0  0  0  0  0  0
    2.9650  -35.5709   23.7556 N   0  0  0  0  0  0
    2.4251  -35.8255   22.4791 C   0  0  0  0  0  0
    1.4586  -36.5645   22.3025 O   0  0  0  0  0  0
    3.0625  -35.1922   21.4227 N   0  0  0  0  0  0
    2.3091  -36.2707   24.8892 C   0  0  0  0  0  0
    1.0909  -35.6387   25.2662 O   0  0  0  0  0  0
    0.5073  -36.2605   26.4152 C   0  0  0  0  0  0
   -0.7778  -35.5718   26.8030 C   0  0  0  0  0  0
    2.6913  -35.3447   20.5237 H   0  0  0  0  0  0
  1  2  1  0  0  0
  1  6  1  0  0  0
  1  7  1  0  0  0
  2  3  1  0  0  0
  3  4  1  0  0  0
  4  5  1  0  0  0
  5  6  1  0  0  0
  7  8  1  0  0  0
  8  9  2  0  0  0
  8 15  1  0  0  0
  9 10  1  0  0  0
  9 13  1  0  0  0
 10 11  1  0  0  0
 10 12  1  0  0  0
 13 14  2  0  0  0
 13 18  1  0  0  0
 15 16  1  0  0  0
 15 19  1  0  0  0
 16 17  2  0  0  0
 16 18  1  0  0  0
 18 23  1  0  0  0
 19 20  1  0  0  0
 20 21  1  0  0  0
 21 22  1  0  0  0
M  END
>  <CHROM.0>
0.80839531,62.25524764,-177.51766385

>  <CHROM.1>
163.83230032,142.43161474,-132.30621130,103.91890336,-176.07041668,179.68521744
3.23937508,-34.54163431,24.72037431,-2.17918048,-0.51765918,-1.86085045

>  <FORMUL>
      612    C16 H26 N2 O3 S1

>  <HET>
 612  A 999      22

>  <HETNAM>
     612 6-(cyclohexylsulfanyl)-1-(ethoxymethyl)-5-(1-methylethy
   2 612 l)pyrimidine-2,4(1H,3H)-dione

>  <HETSYN>
     612 TNK-6123

>  <Name>
612.pdb

>  <RI>
0

>  <Rbt.Current_Directory>
/home/malgorzata/Desktop/rDOCK_IFD/Wyniki/9_hiv_rt/IFD

>  <Rbt.Executable>
rbdock ($Id: //depot/dev/client3/rdock/2013.1/src/exe/rbdock.cxx#4 $)

>  <Rbt.Library>
libRbt.so (2013.1, Build901 2013/11/27)

>  <Rbt.Parameter_File>
/home/malgorzata/Desktop/rDock_2013.1_src/data/scripts/hard_docking.prm

>  <Rbt.Receptor>
cavity.prm

>  <SCORE>
-12.7828

>  <SCORE.INTER>
-12.0753

>  <SCORE.INTER.CONST>
1

>  <SCORE.INTER.POLAR>
0

>  <SCORE.INTER.REPUL>
0.0103576

>  <SCORE.INTER.ROT>
6

>  <SCORE.INTER.VDW>
-23.5271

>  <SCORE.INTER.norm>
-0.548878

>  <SCORE.INTRA>
-1.62965

>  <SCORE.INTRA.DIHEDRAL>
-6.19881

>  <SCORE.INTRA.DIHEDRAL.0>
11.8882

>  <SCORE.INTRA.POLAR>
0

>  <SCORE.INTRA.POLAR.0>
0

>  <SCORE.INTRA.REPUL>
0

>  <SCORE.INTRA.REPUL.0>
0

>  <SCORE.INTRA.VDW>
1.46976

>  <SCORE.INTRA.VDW.0>
-3.04122

>  <SCORE.INTRA.norm>
-0.0740748

>  <SCORE.RESTR>
0

>  <SCORE.RESTR.CAVITY>
0

>  <SCORE.RESTR.norm>
0

>  <SCORE.SYSTEM>
0.922115

>  <SCORE.SYSTEM.CONST>
0

>  <SCORE.SYSTEM.DIHEDRAL>
3.76576

>  <SCORE.SYSTEM.VDW>
-0.960765

>  <SCORE.SYSTEM.norm>
0.0419143

>  <SCORE.heavy>
22

>  <SCORE.norm>
-0.581038

$$$$
612.pdb
  rDOCK(R)          3D
libRbt.so/2013.1/901 2013/11/27
 23 24  0  0  0  0  0  0  0  0999 V2000
    0.7006  -34.4421   27.5371 C   0  0  0  0  0  0
   -0.7759  -34.8025   27.4636 C   0  0  0  0  0  0
   -1.6386  -33.5964   27.7268 C   0  0  0  0  0  0
   -1.3047  -32.9781   29.0809 C   0  0  0  0  0  0
    0.1708  -32.6051   29.1422 C   0  0  0  0  0  0
    1.0266  -33.8272   28.8911 C   0  0  0  0  0  0
    1.5938  -36.0302   27.3884 S   0  0  0  0  0  0
    2.3483  -36.1219   25.6911 C   0  0  0  0  0  0
    2.0057  -37.1361   24.8077 C   0  0  0  0  0  0
    0.8009  -38.0787   24.9873 C   0  0  0  0  0  0
   -0.5370  -37.3816   25.0636 C   0  0  0  0  0  0
    1.0033  -39.1239   26.0304 C   0  0  0  0  0  0
    2.6783  -37.2270   23.5228 C   0  0  0  0  0  0
    2.4740  -38.1203   22.7110 O   0  0  0  0  0  0
    3.3231  -35.1666   25.3463 N   0  0  0  0  0  0
    3.9911  -35.2004   24.1060 C   0  0  0  0  0  0
    4.8295  -34.3621   23.7806 O   0  0  0  0  0  0
    3.6349  -36.2422   23.2628 N   0  0  0  0  0  0
    3.6743  -34.0357   26.2423 C   0  0  0  0  0  0
    4.4818  -34.4590   27.3352 O   0  0  0  0  0  0
    4.7575  -33.3821   28.2360 C   0  0  0  0  0  0
    5.5955  -33.8556   29.3977 C   0  0  0  0  0  0
    4.1012  -36.2928   22.3972 H   0  0  0  0  0  0
  1  2  1  0  0  0
  1  6  1  0  0  0
  1  7  1  0  0  0
  2  3  1  0  0  0
  3  4  1  0  0  0
  4  5  1  0  0  0
  5  6  1  0  0  0
  7  8  1  0  0  0
  8  9  2  0  0  0
  8 15  1  0  0  0
  9 10  1  0  0  0
  9 13  1  0  0  0
 10 11  1  0  0  0
 10 12  1  0  0  0
 13 14  2  0  0  0
 13 18  1  0  0  0
 15 16  1  0  0  0
 15 19  1  0  0  0
 16 17  2  0  0  0
 16 18  1  0  0  0
 18 23  1  0  0  0
 19 20  1  0  0  0
 20 21  1  0  0  0
 21 22  1  0  0  0
M  END
>  <CHROM.0>
-175.81043544,-178.10573628,-177.26688322

>  <CHROM.1>
106.15091982,-119.73427319,58.97486039,75.64645695,-176.80667009,179.10693901
2.04388872,-35.39746154,26.33000551,1.91630712,0.26623771,0.84378358

>  <FORMUL>
      612    C16 H26 N2 O3 S1

>  <HET>
 612  A 999      22

>  <HETNAM>
     612 6-(cyclohexylsulfanyl)-1-(ethoxymethyl)-5-(1-methylethy
   2 612 l)pyrimidine-2,4(1H,3H)-dione

>  <HETSYN>
     612 TNK-6123

>  <Name>
612.pdb

>  <RI>
0

>  <Rbt.Current_Directory>
/home/malgorzata/Desktop/rDOCK_IFD/Wyniki/9_hiv_rt/IFD

>  <Rbt.Executable>
rbdock ($Id: //depot/dev/client3/rdock/2013.1/src/exe/rbdock.cxx#4 $)

>  <Rbt.Library>
libRbt.so (2013.1, Build901 2013/11/27)

>  <Rbt.Parameter_File>
/home/malgorzata/Desktop/rDock_2013.1_src/data/scripts/hard_docking.prm

>  <Rbt.Receptor>
cavity.prm

>  <SCORE>
-18.2521

>  <SCORE.INTER>
-15.1752

>  <SCORE.INTER.CONST>
1

>  <SCORE.INTER.POLAR>
0

>  <SCORE.INTER.REPUL>
0

>  <SCORE.INTER.ROT>
6

>  <SCORE.INTER.VDW>
-26.5752

>  <SCORE.INTER.norm>
-0.689784

>  <SCORE.INTRA>
-2.73605

>  <SCORE.INTRA.DIHEDRAL>
-4.67454

>  <SCORE.INTRA.DIHEDRAL.0>
11.8882

>  <SCORE.INTRA.POLAR>
0

>  <SCORE.INTRA.POLAR.0>
0

>  <SCORE.INTRA.REPUL>
0

>  <SCORE.INTRA.REPUL.0>
0

>  <SCORE.INTRA.VDW>
-0.398787

>  <SCORE.INTRA.VDW.0>
-3.04122

>  <SCORE.INTRA.norm>
-0.124366

>  <SCORE.RESTR>
0

>  <SCORE.RESTR.CAVITY>
0

>  <SCORE.RESTR.norm>
0

>  <SCORE.SYSTEM>
-0.340781

>  <SCORE.SYSTEM.CONST>
0

>  <SCORE.SYSTEM.DIHEDRAL>
0.0396224

>  <SCORE.SYSTEM.VDW>
-0.360593

>  <SCORE.SYSTEM.norm>
-0.0154901

>  <SCORE.heavy>
22

>  <SCORE.norm>
-0.82964

$$$$
