612.pdb
  rDOCK(R)          3D
libRbt.so/2013.1/901 2013/11/27
 23 24  0  0  0  0  0  0  0  0999 V2000
   -1.6698  -33.8599   27.4541 C   0  0  0  0  0  0
   -1.8247  -33.8577   28.9678 C   0  0  0  0  0  0
   -0.9762  -32.7827   29.5947 C   0  0  0  0  0  0
    0.4889  -32.9555   29.2063 C   0  0  0  0  0  0
    0.6392  -32.9409   27.6906 C   0  0  0  0  0  0
   -0.2059  -34.0340   27.0742 C   0  0  0  0  0  0
   -2.5997  -35.3234   26.8752 S   0  0  0  0  0  0
   -2.4982  -35.3861   25.0192 C   0  0  0  0  0  0
   -1.7075  -36.3279   24.3756 C   0  0  0  0  0  0
   -1.0947  -37.5650   25.0585 C   0  0  0  0  0  0
   -2.1044  -38.5373   25.6215 C   0  0  0  0  0  0
    0.0279  -37.2477   25.9862 C   0  0  0  0  0  0
   -1.5838  -36.2934   22.9282 C   0  0  0  0  0  0
   -0.8658  -37.0518   22.2896 O   0  0  0  0  0  0
   -3.2002  -34.4128   24.2835 N   0  0  0  0  0  0
   -3.1278  -34.3480   22.8777 C   0  0  0  0  0  0
   -3.7507  -33.5180   22.2184 O   0  0  0  0  0  0
   -2.3098  -35.2929   22.2765 N   0  0  0  0  0  0
   -4.0994  -33.4258   24.9333 C   0  0  0  0  0  0
   -5.1164  -34.0620   25.6993 O   0  0  0  0  0  0
   -5.9915  -33.1088   26.3098 C   0  0  0  0  0  0
   -7.0262  -33.8001   27.1629 C   0  0  0  0  0  0
   -2.2332  -35.2551   21.2958 H   0  0  0  0  0  0
  1  2  1  0  0  0
  1  6  1  0  0  0
  1  7  1  0  0  0
  2  3  1  0  0  0
  3  4  1  0  0  0
  4  5  1  0  0  0
  5  6  1  0  0  0
  7  8  1  0  0  0
  8  9  2  0  0  0
  8 15  1  0  0  0
  9 10  1  0  0  0
  9 13  1  0  0  0
 10 11  1  0  0  0
 10 12  1  0  0  0
 13 14  2  0  0  0
 13 18  1  0  0  0
 15 16  1  0  0  0
 15 19  1  0  0  0
 16 17  2  0  0  0
 16 18  1  0  0  0
 18 23  1  0  0  0
 19 20  1  0  0  0
 20 21  1  0  0  0
 21 22  1  0  0  0
M  END
>  <CHROM.0>
-174.98126433,-177.92376059,-174.54082338,-158.06889712,6.00940430

>  <CHROM.1>
178.71932355,106.98813216,61.94873822,-56.67743880,-179.23419173,-177.62617263
-2.34748736,-34.84545797,25.69428136,-1.32997899,0.42370306,-2.08069573

>  <FORMUL>
      612    C16 H26 N2 O3 S1

>  <HET>
 612  A 999      22

>  <HETNAM>
     612 6-(cyclohexylsulfanyl)-1-(ethoxymethyl)-5-(1-methylethy
   2 612 l)pyrimidine-2,4(1H,3H)-dione

>  <HETSYN>
     612 TNK-6123

>  <Name>
612.pdb

>  <RI>
0

>  <Rbt.Current_Directory>
/home/malgorzata/Desktop/rDOCK_IFD/Wyniki/9_hiv_rt/IFD

>  <Rbt.Executable>
rbdock ($Id: //depot/dev/client3/rdock/2013.1/src/exe/rbdock.cxx#4 $)

>  <Rbt.Library>
libRbt.so (2013.1, Build901 2013/11/27)

>  <Rbt.Parameter_File>
/home/malgorzata/Desktop/rDock_2013.1_src/data/scripts/dock.prm

>  <Rbt.Receptor>
cavity.prm

>  <SCORE>
-38.6922

>  <SCORE.INTER>
-18.9614

>  <SCORE.INTER.CONST>
1

>  <SCORE.INTER.POLAR>
-0.916515

>  <SCORE.INTER.REPUL>
0

>  <SCORE.INTER.ROT>
6

>  <SCORE.INTER.VDW>
-27.2453

>  <SCORE.INTER.norm>
-0.861882

>  <SCORE.INTRA>
-3.61165

>  <SCORE.INTRA.DIHEDRAL>
-6.78144

>  <SCORE.INTRA.DIHEDRAL.0>
11.8882

>  <SCORE.INTRA.POLAR>
0

>  <SCORE.INTRA.POLAR.0>
0

>  <SCORE.INTRA.REPUL>
0

>  <SCORE.INTRA.REPUL.0>
0

>  <SCORE.INTRA.VDW>
-0.220932

>  <SCORE.INTRA.VDW.0>
-3.04122

>  <SCORE.INTRA.norm>
-0.164166

>  <SCORE.RESTR>
0

>  <SCORE.RESTR.CAVITY>
0

>  <SCORE.RESTR.norm>
0

>  <SCORE.SYSTEM>
-16.1191

>  <SCORE.SYSTEM.CONST>
0

>  <SCORE.SYSTEM.DIHEDRAL>
0.839975

>  <SCORE.SYSTEM.POLAR>
-0.259306

>  <SCORE.SYSTEM.VDW>
-15.6574

>  <SCORE.SYSTEM.norm>
-0.732686

>  <SCORE.heavy>
22

>  <SCORE.norm>
-1.75873

$$$$
612.pdb
  rDOCK(R)          3D
libRbt.so/2013.1/901 2013/11/27
 23 24  0  0  0  0  0  0  0  0999 V2000
   -3.3781  -33.7887   23.8419 C   0  0  0  0  0  0
   -4.3055  -34.5144   22.8785 C   0  0  0  0  0  0
   -4.7572  -33.5978   21.7720 C   0  0  0  0  0  0
   -5.4400  -32.3583   22.3419 C   0  0  0  0  0  0
   -4.5010  -31.6278   23.2930 C   0  0  0  0  0  0
   -4.0664  -32.5541   24.4075 C   0  0  0  0  0  0
   -3.0817  -34.9672   25.2077 S   0  0  0  0  0  0
   -1.2466  -35.1013   25.4785 C   0  0  0  0  0  0
   -0.5290  -36.1899   25.0027 C   0  0  0  0  0  0
   -1.0676  -37.2106   23.9827 C   0  0  0  0  0  0
   -1.4431  -36.6225   22.6429 C   0  0  0  0  0  0
   -2.0840  -38.1452   24.5439 C   0  0  0  0  0  0
    0.8872  -36.3050   25.3068 C   0  0  0  0  0  0
    1.5785  -37.2583   24.9720 O   0  0  0  0  0  0
   -0.6124  -34.0957   26.2322 N   0  0  0  0  0  0
    0.7619  -34.1515   26.5388 C   0  0  0  0  0  0
    1.3358  -33.2718   27.1777 O   0  0  0  0  0  0
    1.4362  -35.2663   26.0634 N   0  0  0  0  0  0
   -1.3354  -32.8895   26.7091 C   0  0  0  0  0  0
   -1.5375  -32.9175   28.1176 O   0  0  0  0  0  0
   -2.6486  -33.7452   28.4751 C   0  0  0  0  0  0
   -2.2471  -35.1992   28.5033 C   0  0  0  0  0  0
    2.3942  -35.3322   26.2800 H   0  0  0  0  0  0
  1  2  1  0  0  0
  1  6  1  0  0  0
  1  7  1  0  0  0
  2  3  1  0  0  0
  3  4  1  0  0  0
  4  5  1  0  0  0
  5  6  1  0  0  0
  7  8  1  0  0  0
  8  9  2  0  0  0
  8 15  1  0  0  0
  9 10  1  0  0  0
  9 13  1  0  0  0
 10 11  1  0  0  0
 10 12  1  0  0  0
 13 14  2  0  0  0
 13 18  1  0  0  0
 15 16  1  0  0  0
 15 19  1  0  0  0
 16 17  2  0  0  0
 16 18  1  0  0  0
 18 23  1  0  0  0
 19 20  1  0  0  0
 20 21  1  0  0  0
 21 22  1  0  0  0
M  END
>  <CHROM.0>
-57.91134474,-177.86234963,10.64876752,-176.56699464,-1.25876391

>  <CHROM.1>
128.99438816,-102.10436891,60.81814578,108.86562339,-80.09744409,81.29710086
-1.80273678,-34.63803169,25.19152681,-2.96510654,-0.65244994,0.84917678

>  <FORMUL>
      612    C16 H26 N2 O3 S1

>  <HET>
 612  A 999      22

>  <HETNAM>
     612 6-(cyclohexylsulfanyl)-1-(ethoxymethyl)-5-(1-methylethy
   2 612 l)pyrimidine-2,4(1H,3H)-dione

>  <HETSYN>
     612 TNK-6123

>  <Name>
612.pdb

>  <RI>
0

>  <Rbt.Current_Directory>
/home/malgorzata/Desktop/rDOCK_IFD/Wyniki/9_hiv_rt/IFD

>  <Rbt.Executable>
rbdock ($Id: //depot/dev/client3/rdock/2013.1/src/exe/rbdock.cxx#4 $)

>  <Rbt.Library>
libRbt.so (2013.1, Build901 2013/11/27)

>  <Rbt.Parameter_File>
/home/malgorzata/Desktop/rDock_2013.1_src/data/scripts/dock.prm

>  <Rbt.Receptor>
cavity.prm

>  <SCORE>
-24.8276

>  <SCORE.INTER>
-9.27176

>  <SCORE.INTER.CONST>
1

>  <SCORE.INTER.POLAR>
0

>  <SCORE.INTER.REPUL>
0

>  <SCORE.INTER.ROT>
6

>  <SCORE.INTER.VDW>
-20.6718

>  <SCORE.INTER.norm>
-0.421444

>  <SCORE.INTRA>
0.427933

>  <SCORE.INTRA.DIHEDRAL>
-0.590606

>  <SCORE.INTRA.DIHEDRAL.0>
11.8882

>  <SCORE.INTRA.POLAR>
0

>  <SCORE.INTRA.POLAR.0>
0

>  <SCORE.INTRA.REPUL>
0

>  <SCORE.INTRA.REPUL.0>
0

>  <SCORE.INTRA.VDW>
0.723235

>  <SCORE.INTRA.VDW.0>
-3.04122

>  <SCORE.INTRA.norm>
0.0194515

>  <SCORE.RESTR>
0

>  <SCORE.RESTR.CAVITY>
0

>  <SCORE.RESTR.norm>
0

>  <SCORE.SYSTEM>
-15.9838

>  <SCORE.SYSTEM.CONST>
0

>  <SCORE.SYSTEM.DIHEDRAL>
0.204989

>  <SCORE.SYSTEM.POLAR>
-0.244195

>  <SCORE.SYSTEM.VDW>
-15.256

>  <SCORE.SYSTEM.norm>
-0.726536

>  <SCORE.heavy>
22

>  <SCORE.norm>
-1.12853

$$$$
612.pdb
  rDOCK(R)          3D
libRbt.so/2013.1/901 2013/11/27
 23 24  0  0  0  0  0  0  0  0999 V2000
   -0.3573  -34.8652   27.0670 C   0  0  0  0  0  0
   -0.1211  -35.2497   28.5200 C   0  0  0  0  0  0
   -0.1825  -34.0395   29.4145 C   0  0  0  0  0  0
    0.8266  -32.9859   28.9682 C   0  0  0  0  0  0
    0.5748  -32.5937   27.5181 C   0  0  0  0  0  0
    0.6538  -33.8149   26.6284 C   0  0  0  0  0  0
   -0.0624  -36.3936   26.1084 S   0  0  0  0  0  0
   -0.7525  -36.1553   24.3979 C   0  0  0  0  0  0
    0.0422  -36.3282   23.2733 C   0  0  0  0  0  0
    1.4275  -37.0016   23.2798 C   0  0  0  0  0  0
    1.4000  -38.4942   23.5102 C   0  0  0  0  0  0
    2.4457  -36.2786   24.0934 C   0  0  0  0  0  0
   -0.5060  -36.0499   21.9566 C   0  0  0  0  0  0
    0.1426  -36.1248   20.9212 O   0  0  0  0  0  0
   -2.0908  -35.7362   24.2754 N   0  0  0  0  0  0
   -2.6748  -35.4708   23.0206 C   0  0  0  0  0  0
   -3.8476  -35.1244   22.8943 O   0  0  0  0  0  0
   -1.8398  -35.6345   21.9254 N   0  0  0  0  0  0
   -2.9866  -35.5952   25.4512 C   0  0  0  0  0  0
   -2.9048  -34.2950   26.0244 O   0  0  0  0  0  0
   -3.8231  -34.1383   27.1105 C   0  0  0  0  0  0
   -5.1913  -33.7534   26.6047 C   0  0  0  0  0  0
   -2.2241  -35.4392   21.0404 H   0  0  0  0  0  0
  1  2  1  0  0  0
  1  6  1  0  0  0
  1  7  1  0  0  0
  2  3  1  0  0  0
  3  4  1  0  0  0
  4  5  1  0  0  0
  5  6  1  0  0  0
  7  8  1  0  0  0
  8  9  2  0  0  0
  8 15  1  0  0  0
  9 10  1  0  0  0
  9 13  1  0  0  0
 10 11  1  0  0  0
 10 12  1  0  0  0
 13 14  2  0  0  0
 13 18  1  0  0  0
 15 16  1  0  0  0
 15 19  1  0  0  0
 16 17  2  0  0  0
 16 18  1  0  0  0
 18 23  1  0  0  0
 19 20  1  0  0  0
 20 21  1  0  0  0
 21 22  1  0  0  0
M  END
>  <CHROM.0>
-176.41002025,-177.88665599,175.26373720,-9.70166430,-166.33767201

>  <CHROM.1>
165.22257817,124.36036691,70.79810594,88.87466239,176.75976739,-84.37368848
-0.88538128,-35.32501897,25.18725772,-1.68822433,0.25686624,-1.97393604

>  <FORMUL>
      612    C16 H26 N2 O3 S1

>  <HET>
 612  A 999      22

>  <HETNAM>
     612 6-(cyclohexylsulfanyl)-1-(ethoxymethyl)-5-(1-methylethy
   2 612 l)pyrimidine-2,4(1H,3H)-dione

>  <HETSYN>
     612 TNK-6123

>  <Name>
612.pdb

>  <RI>
0

>  <Rbt.Current_Directory>
/home/malgorzata/Desktop/rDOCK_IFD/Wyniki/9_hiv_rt/IFD

>  <Rbt.Executable>
rbdock ($Id: //depot/dev/client3/rdock/2013.1/src/exe/rbdock.cxx#4 $)

>  <Rbt.Library>
libRbt.so (2013.1, Build901 2013/11/27)

>  <Rbt.Parameter_File>
/home/malgorzata/Desktop/rDock_2013.1_src/data/scripts/dock.prm

>  <Rbt.Receptor>
cavity.prm

>  <SCORE>
-10.4017

>  <SCORE.INTER>
6.978

>  <SCORE.INTER.CONST>
1

>  <SCORE.INTER.POLAR>
-1.76395

>  <SCORE.INTER.REPUL>
0

>  <SCORE.INTER.ROT>
6

>  <SCORE.INTER.VDW>
1.57544

>  <SCORE.INTER.norm>
0.317182

>  <SCORE.INTRA>
-1.12553

>  <SCORE.INTRA.DIHEDRAL>
-3.80776

>  <SCORE.INTRA.DIHEDRAL.0>
11.8882

>  <SCORE.INTRA.POLAR>
0

>  <SCORE.INTRA.POLAR.0>
0

>  <SCORE.INTRA.REPUL>
0

>  <SCORE.INTRA.REPUL.0>
0

>  <SCORE.INTRA.VDW>
0.778349

>  <SCORE.INTRA.VDW.0>
-3.04122

>  <SCORE.INTRA.norm>
-0.0511606

>  <SCORE.RESTR>
0

>  <SCORE.RESTR.CAVITY>
0

>  <SCORE.RESTR.norm>
0

>  <SCORE.SYSTEM>
-16.2542

>  <SCORE.SYSTEM.CONST>
0

>  <SCORE.SYSTEM.DIHEDRAL>
0.479091

>  <SCORE.SYSTEM.POLAR>
-0.25809

>  <SCORE.SYSTEM.VDW>
-15.6162

>  <SCORE.SYSTEM.norm>
-0.738827

>  <SCORE.heavy>
22

>  <SCORE.norm>
-0.472806

$$$$
612.pdb
  rDOCK(R)          3D
libRbt.so/2013.1/901 2013/11/27
 23 24  0  0  0  0  0  0  0  0999 V2000
   -1.6229  -33.8048   28.1191 C   0  0  0  0  0  0
   -2.1392  -33.5776   29.5323 C   0  0  0  0  0  0
   -1.3551  -32.4940   30.2246 C   0  0  0  0  0  0
    0.1323  -32.8324   30.2455 C   0  0  0  0  0  0
    0.6465  -33.0429   28.8273 C   0  0  0  0  0  0
   -0.1389  -34.1433   28.1480 C   0  0  0  0  0  0
   -2.5399  -35.2590   27.4974 S   0  0  0  0  0  0
   -2.3105  -35.3527   25.6542 C   0  0  0  0  0  0
   -1.1363  -35.8448   25.1017 C   0  0  0  0  0  0
   -0.0610  -36.6195   25.8866 C   0  0  0  0  0  0
    1.3550  -36.1559   25.6381 C   0  0  0  0  0  0
   -0.2333  -38.0994   25.8454 C   0  0  0  0  0  0
   -0.9569  -35.8234   23.6598 C   0  0  0  0  0  0
    0.0678  -36.1874   23.0975 O   0  0  0  0  0  0
   -3.3390  -34.8551   24.8320 N   0  0  0  0  0  0
   -3.2214  -34.8290   23.4279 C   0  0  0  0  0  0
   -4.1180  -34.4174   22.6943 O   0  0  0  0  0  0
   -2.0241  -35.3091   22.9188 N   0  0  0  0  0  0
   -4.6305  -34.3734   25.3843 C   0  0  0  0  0  0
   -4.4484  -33.2777   26.2741 O   0  0  0  0  0  0
   -5.3071  -33.3755   27.4145 C   0  0  0  0  0  0
   -6.7556  -33.2711   27.0058 C   0  0  0  0  0  0
   -1.9156  -35.2853   21.9406 H   0  0  0  0  0  0
  1  2  1  0  0  0
  1  6  1  0  0  0
  1  7  1  0  0  0
  2  3  1  0  0  0
  3  4  1  0  0  0
  4  5  1  0  0  0
  5  6  1  0  0  0
  7  8  1  0  0  0
  8  9  2  0  0  0
  8 15  1  0  0  0
  9 10  1  0  0  0
  9 13  1  0  0  0
 10 11  1  0  0  0
 10 12  1  0  0  0
 13 14  2  0  0  0
 13 18  1  0  0  0
 15 16  1  0  0  0
 15 19  1  0  0  0
 16 17  2  0  0  0
 16 18  1  0  0  0
 18 23  1  0  0  0
 19 20  1  0  0  0
 20 21  1  0  0  0
 21 22  1  0  0  0
M  END
>  <CHROM.0>
62.33904523,-177.85756363,179.54056020,5.67582383,6.60154344

>  <CHROM.1>
165.60010613,77.93285079,-133.30816738,60.72420356,-139.80595826,-64.78706417
-2.05878398,-34.70037479,26.30119334,-1.48839966,0.33459147,-2.00317537

>  <FORMUL>
      612    C16 H26 N2 O3 S1

>  <HET>
 612  A 999      22

>  <HETNAM>
     612 6-(cyclohexylsulfanyl)-1-(ethoxymethyl)-5-(1-methylethy
   2 612 l)pyrimidine-2,4(1H,3H)-dione

>  <HETSYN>
     612 TNK-6123

>  <Name>
612.pdb

>  <RI>
0

>  <Rbt.Current_Directory>
/home/malgorzata/Desktop/rDOCK_IFD/Wyniki/9_hiv_rt/IFD

>  <Rbt.Executable>
rbdock ($Id: //depot/dev/client3/rdock/2013.1/src/exe/rbdock.cxx#4 $)

>  <Rbt.Library>
libRbt.so (2013.1, Build901 2013/11/27)

>  <Rbt.Parameter_File>
/home/malgorzata/Desktop/rDock_2013.1_src/data/scripts/dock.prm

>  <Rbt.Receptor>
cavity.prm

>  <SCORE>
-26.0904

>  <SCORE.INTER>
-12.4375

>  <SCORE.INTER.CONST>
1

>  <SCORE.INTER.POLAR>
0

>  <SCORE.INTER.REPUL>
0

>  <SCORE.INTER.ROT>
6

>  <SCORE.INTER.VDW>
-23.8375

>  <SCORE.INTER.norm>
-0.565343

>  <SCORE.INTRA>
2.62637

>  <SCORE.INTRA.DIHEDRAL>
-0.952746

>  <SCORE.INTRA.DIHEDRAL.0>
11.8882

>  <SCORE.INTRA.POLAR>
0

>  <SCORE.INTRA.POLAR.0>
0

>  <SCORE.INTRA.REPUL>
0

>  <SCORE.INTRA.REPUL.0>
0

>  <SCORE.INTRA.VDW>
3.10274

>  <SCORE.INTRA.VDW.0>
-3.04122

>  <SCORE.INTRA.norm>
0.11938

>  <SCORE.RESTR>
0

>  <SCORE.RESTR.CAVITY>
0

>  <SCORE.RESTR.norm>
0

>  <SCORE.SYSTEM>
-16.2793

>  <SCORE.SYSTEM.CONST>
0

>  <SCORE.SYSTEM.DIHEDRAL>
0.136397

>  <SCORE.SYSTEM.POLAR>
-0.24107

>  <SCORE.SYSTEM.VDW>
-15.5278

>  <SCORE.SYSTEM.norm>
-0.739966

>  <SCORE.heavy>
22

>  <SCORE.norm>
-1.18593

$$$$
612.pdb
  rDOCK(R)          3D
libRbt.so/2013.1/901 2013/11/27
 23 24  0  0  0  0  0  0  0  0999 V2000
   -1.5968  -33.6336   27.5096 C   0  0  0  0  0  0
   -1.9219  -33.5599   28.9942 C   0  0  0  0  0  0
   -1.0255  -32.5721   29.6937 C   0  0  0  0  0  0
    0.4422  -32.9314   29.4837 C   0  0  0  0  0  0
    0.7650  -32.9880   27.9962 C   0  0  0  0  0  0
   -0.1314  -33.9938   27.3080 C   0  0  0  0  0  0
   -2.6265  -34.9956   26.8564 S   0  0  0  0  0  0
   -2.4814  -35.0031   25.0023 C   0  0  0  0  0  0
   -3.3792  -34.3016   24.2098 C   0  0  0  0  0  0
   -4.3622  -33.2393   24.7367 C   0  0  0  0  0  0
   -5.8052  -33.6838   24.7791 C   0  0  0  0  0  0
   -4.1592  -31.8851   24.1480 C   0  0  0  0  0  0
   -3.2886  -34.3993   22.7628 C   0  0  0  0  0  0
   -4.0730  -33.8573   21.9950 O   0  0  0  0  0  0
   -1.4693  -35.7890   24.4196 N   0  0  0  0  0  0
   -1.3279  -35.9024   23.0221 C   0  0  0  0  0  0
   -0.4371  -36.5673   22.4969 O   0  0  0  0  0  0
   -2.2587  -35.2037   22.2680 N   0  0  0  0  0  0
   -0.4572  -36.5073   25.2349 C   0  0  0  0  0  0
   -0.4881  -37.9105   24.9988 O   0  0  0  0  0  0
   -1.6617  -38.5132   25.5527 C   0  0  0  0  0  0
   -2.8254  -38.3964   24.5996 C   0  0  0  0  0  0
   -2.1868  -35.2820   21.2893 H   0  0  0  0  0  0
  1  2  1  0  0  0
  1  6  1  0  0  0
  1  7  1  0  0  0
  2  3  1  0  0  0
  3  4  1  0  0  0
  4  5  1  0  0  0
  5  6  1  0  0  0
  7  8  1  0  0  0
  8  9  2  0  0  0
  8 15  1  0  0  0
  9 10  1  0  0  0
  9 13  1  0  0  0
 10 11  1  0  0  0
 10 12  1  0  0  0
 13 14  2  0  0  0
 13 18  1  0  0  0
 15 16  1  0  0  0
 15 19  1  0  0  0
 16 17  2  0  0  0
 16 18  1  0  0  0
 18 23  1  0  0  0
 19 20  1  0  0  0
 20 21  1  0  0  0
 21 22  1  0  0  0
M  END
>  <CHROM.0>
-177.56306959,-177.85882276,8.80775438,0.36086901,-162.94205420

>  <CHROM.1>
171.95703844,-92.04018045,-106.87678649,121.08944246,-71.09296838,84.32544104
-2.05323455,-34.85060178,25.42407664,1.09153392,-0.78331118,0.82838661

>  <FORMUL>
      612    C16 H26 N2 O3 S1

>  <HET>
 612  A 999      22

>  <HETNAM>
     612 6-(cyclohexylsulfanyl)-1-(ethoxymethyl)-5-(1-methylethy
   2 612 l)pyrimidine-2,4(1H,3H)-dione

>  <HETSYN>
     612 TNK-6123

>  <Name>
612.pdb

>  <RI>
0

>  <Rbt.Current_Directory>
/home/malgorzata/Desktop/rDOCK_IFD/Wyniki/9_hiv_rt/IFD

>  <Rbt.Executable>
rbdock ($Id: //depot/dev/client3/rdock/2013.1/src/exe/rbdock.cxx#4 $)

>  <Rbt.Library>
libRbt.so (2013.1, Build901 2013/11/27)

>  <Rbt.Parameter_File>
/home/malgorzata/Desktop/rDock_2013.1_src/data/scripts/dock.prm

>  <Rbt.Receptor>
cavity.prm

>  <SCORE>
-32.4614

>  <SCORE.INTER>
-16.4755

>  <SCORE.INTER.CONST>
1

>  <SCORE.INTER.POLAR>
-0.916515

>  <SCORE.INTER.REPUL>
0.0554778

>  <SCORE.INTER.ROT>
6

>  <SCORE.INTER.VDW>
-25.0367

>  <SCORE.INTER.norm>
-0.748886

>  <SCORE.INTRA>
0.0221146

>  <SCORE.INTRA.DIHEDRAL>
-3.49339

>  <SCORE.INTRA.DIHEDRAL.0>
11.8882

>  <SCORE.INTRA.POLAR>
0

>  <SCORE.INTRA.POLAR.0>
0

>  <SCORE.INTRA.REPUL>
0

>  <SCORE.INTRA.REPUL.0>
0

>  <SCORE.INTRA.VDW>
1.76881

>  <SCORE.INTRA.VDW.0>
-3.04122

>  <SCORE.INTRA.norm>
0.00100521

>  <SCORE.RESTR>
0

>  <SCORE.RESTR.CAVITY>
0

>  <SCORE.RESTR.norm>
0

>  <SCORE.SYSTEM>
-16.008

>  <SCORE.SYSTEM.CONST>
0

>  <SCORE.SYSTEM.DIHEDRAL>
0.551039

>  <SCORE.SYSTEM.POLAR>
-0.256542

>  <SCORE.SYSTEM.VDW>
-15.4113

>  <SCORE.SYSTEM.norm>
-0.727636

>  <SCORE.heavy>
22

>  <SCORE.norm>
-1.47552

$$$$
612.pdb
  rDOCK(R)          3D
libRbt.so/2013.1/901 2013/11/27
 23 24  0  0  0  0  0  0  0  0999 V2000
   -2.6799  -34.5182   24.1695 C   0  0  0  0  0  0
   -3.2793  -35.5069   23.1804 C   0  0  0  0  0  0
   -4.1365  -34.7994   22.1639 C   0  0  0  0  0  0
   -5.2361  -33.9951   22.8504 C   0  0  0  0  0  0
   -4.6291  -32.9965   23.8273 C   0  0  0  0  0  0
   -3.7828  -33.7204   24.8514 C   0  0  0  0  0  0
   -1.8393  -35.5433   25.4283 S   0  0  0  0  0  0
   -1.0691  -34.4115   26.6872 C   0  0  0  0  0  0
   -1.8397  -33.7916   27.6609 C   0  0  0  0  0  0
   -3.2914  -34.1781   28.0009 C   0  0  0  0  0  0
   -4.2675  -33.0253   27.9922 C   0  0  0  0  0  0
   -3.4155  -35.0721   29.1870 C   0  0  0  0  0  0
   -1.2193  -32.8468   28.5742 C   0  0  0  0  0  0
   -1.8368  -32.2181   29.4239 O   0  0  0  0  0  0
    0.3112  -34.1531   26.5898 N   0  0  0  0  0  0
    0.9636  -33.2593   27.4624 C   0  0  0  0  0  0
    2.1716  -33.0381   27.4048 O   0  0  0  0  0  0
    0.1531  -32.6452   28.4055 N   0  0  0  0  0  0
    1.1768  -34.8400   25.5980 C   0  0  0  0  0  0
    2.3007  -35.4572   26.2157 O   0  0  0  0  0  0
    3.2484  -35.9175   25.2477 C   0  0  0  0  0  0
    4.1583  -34.7956   24.8122 C   0  0  0  0  0  0
    0.5867  -32.0052   29.0151 H   0  0  0  0  0  0
  1  2  1  0  0  0
  1  6  1  0  0  0
  1  7  1  0  0  0
  2  3  1  0  0  0
  3  4  1  0  0  0
  4  5  1  0  0  0
  5  6  1  0  0  0
  7  8  1  0  0  0
  8  9  2  0  0  0
  8 15  1  0  0  0
  9 10  1  0  0  0
  9 13  1  0  0  0
 10 11  1  0  0  0
 10 12  1  0  0  0
 13 14  2  0  0  0
 13 18  1  0  0  0
 15 16  1  0  0  0
 15 19  1  0  0  0
 16 17  2  0  0  0
 16 18  1  0  0  0
 18 23  1  0  0  0
 19 20  1  0  0  0
 20 21  1  0  0  0
 21 22  1  0  0  0
M  END
>  <CHROM.0>
-57.46868627,-177.90907701,174.06891889,-171.68255701,-170.99834823

>  <CHROM.1>
179.91366635,76.79610329,-127.85523449,-126.46211573,-169.99812072,83.21568116
-1.26153921,-34.19970448,26.14082733,-2.85668628,-0.13260023,1.23034750

>  <FORMUL>
      612    C16 H26 N2 O3 S1

>  <HET>
 612  A 999      22

>  <HETNAM>
     612 6-(cyclohexylsulfanyl)-1-(ethoxymethyl)-5-(1-methylethy
   2 612 l)pyrimidine-2,4(1H,3H)-dione

>  <HETSYN>
     612 TNK-6123

>  <Name>
612.pdb

>  <RI>
0

>  <Rbt.Current_Directory>
/home/malgorzata/Desktop/rDOCK_IFD/Wyniki/9_hiv_rt/IFD

>  <Rbt.Executable>
rbdock ($Id: //depot/dev/client3/rdock/2013.1/src/exe/rbdock.cxx#4 $)

>  <Rbt.Library>
libRbt.so (2013.1, Build901 2013/11/27)

>  <Rbt.Parameter_File>
/home/malgorzata/Desktop/rDock_2013.1_src/data/scripts/dock.prm

>  <Rbt.Receptor>
cavity.prm

>  <SCORE>
-23.4359

>  <SCORE.INTER>
-7.37295

>  <SCORE.INTER.CONST>
1

>  <SCORE.INTER.POLAR>
0

>  <SCORE.INTER.REPUL>
0

>  <SCORE.INTER.ROT>
6

>  <SCORE.INTER.VDW>
-18.773

>  <SCORE.INTER.norm>
-0.335134

>  <SCORE.INTRA>
0.145998

>  <SCORE.INTRA.DIHEDRAL>
-4.07968

>  <SCORE.INTRA.DIHEDRAL.0>
11.8882

>  <SCORE.INTRA.POLAR>
0

>  <SCORE.INTRA.POLAR.0>
0

>  <SCORE.INTRA.REPUL>
0

>  <SCORE.INTRA.REPUL.0>
0

>  <SCORE.INTRA.VDW>
2.18584

>  <SCORE.INTRA.VDW.0>
-3.04122

>  <SCORE.INTRA.norm>
0.00663629

>  <SCORE.RESTR>
0

>  <SCORE.RESTR.CAVITY>
0

>  <SCORE.RESTR.norm>
0

>  <SCORE.SYSTEM>
-16.209

>  <SCORE.SYSTEM.CONST>
0

>  <SCORE.SYSTEM.DIHEDRAL>
0.297513

>  <SCORE.SYSTEM.POLAR>
-0.24628

>  <SCORE.SYSTEM.VDW>
-15.5204

>  <SCORE.SYSTEM.norm>
-0.736771

>  <SCORE.heavy>
22

>  <SCORE.norm>
-1.06527

$$$$
612.pdb
  rDOCK(R)          3D
libRbt.so/2013.1/901 2013/11/27
 23 24  0  0  0  0  0  0  0  0999 V2000
   -1.5688  -33.9567   27.4590 C   0  0  0  0  0  0
   -1.9254  -33.7958   28.9294 C   0  0  0  0  0  0
   -1.1048  -32.7054   29.5667 C   0  0  0  0  0  0
    0.3859  -32.9860   29.4045 C   0  0  0  0  0  0
    0.7392  -33.1301   27.9299 C   0  0  0  0  0  0
   -0.0805  -34.2376   27.3050 C   0  0  0  0  0  0
   -2.5001  -35.4245   26.8935 S   0  0  0  0  0  0
   -2.4030  -35.5015   25.0378 C   0  0  0  0  0  0
   -1.6393  -36.4685   24.3990 C   0  0  0  0  0  0
   -1.0595  -37.7176   25.0888 C   0  0  0  0  0  0
   -2.0925  -38.6349   25.6999 C   0  0  0  0  0  0
    0.1024  -37.4313   25.9773 C   0  0  0  0  0  0
   -1.5168  -36.4462   22.9512 C   0  0  0  0  0  0
   -0.8207  -37.2279   22.3165 O   0  0  0  0  0  0
   -3.0793  -34.5139   24.2970 N   0  0  0  0  0  0
   -3.0072  -34.4597   22.8907 C   0  0  0  0  0  0
   -3.6081  -33.6171   22.2271 O   0  0  0  0  0  0
   -2.2161  -35.4303   22.2943 N   0  0  0  0  0  0
   -3.9502  -33.4987   24.9419 C   0  0  0  0  0  0
   -5.0376  -34.0999   25.6358 O   0  0  0  0  0  0
   -5.9291  -33.1177   26.1723 C   0  0  0  0  0  0
   -7.0245  -33.7709   26.9783 C   0  0  0  0  0  0
   -2.1400  -35.4007   21.3133 H   0  0  0  0  0  0
  1  2  1  0  0  0
  1  6  1  0  0  0
  1  7  1  0  0  0
  2  3  1  0  0  0
  3  4  1  0  0  0
  4  5  1  0  0  0
  5  6  1  0  0  0
  7  8  1  0  0  0
  8  9  2  0  0  0
  8 15  1  0  0  0
  9 10  1  0  0  0
  9 13  1  0  0  0
 10 11  1  0  0  0
 10 12  1  0  0  0
 13 14  2  0  0  0
 13 18  1  0  0  0
 15 16  1  0  0  0
 15 19  1  0  0  0
 16 17  2  0  0  0
 16 18  1  0  0  0
 18 23  1  0  0  0
 19 20  1  0  0  0
 20 21  1  0  0  0
 21 22  1  0  0  0
M  END
>  <CHROM.0>
-56.90039868,-177.90738784,19.65596154,-155.83822096,-168.34176293

>  <CHROM.1>
168.70022785,108.55882302,59.97915969,-60.77921316,-175.69670873,-176.34660248
-2.28825312,-34.93782761,25.71540522,-1.35642023,0.46096564,-2.10107476

>  <FORMUL>
      612    C16 H26 N2 O3 S1

>  <HET>
 612  A 999      22

>  <HETNAM>
     612 6-(cyclohexylsulfanyl)-1-(ethoxymethyl)-5-(1-methylethy
   2 612 l)pyrimidine-2,4(1H,3H)-dione

>  <HETSYN>
     612 TNK-6123

>  <Name>
612.pdb

>  <RI>
0

>  <Rbt.Current_Directory>
/home/malgorzata/Desktop/rDOCK_IFD/Wyniki/9_hiv_rt/IFD

>  <Rbt.Executable>
rbdock ($Id: //depot/dev/client3/rdock/2013.1/src/exe/rbdock.cxx#4 $)

>  <Rbt.Library>
libRbt.so (2013.1, Build901 2013/11/27)

>  <Rbt.Parameter_File>
/home/malgorzata/Desktop/rDock_2013.1_src/data/scripts/dock.prm

>  <Rbt.Receptor>
cavity.prm

>  <SCORE>
-38.3049

>  <SCORE.INTER>
-19.1449

>  <SCORE.INTER.CONST>
1

>  <SCORE.INTER.POLAR>
-0.916515

>  <SCORE.INTER.REPUL>
0

>  <SCORE.INTER.ROT>
6

>  <SCORE.INTER.VDW>
-27.4288

>  <SCORE.INTER.norm>
-0.870224

>  <SCORE.INTRA>
-3.42007

>  <SCORE.INTRA.DIHEDRAL>
-6.42959

>  <SCORE.INTRA.DIHEDRAL.0>
11.8882

>  <SCORE.INTRA.POLAR>
0

>  <SCORE.INTRA.POLAR.0>
0

>  <SCORE.INTRA.REPUL>
0

>  <SCORE.INTRA.REPUL.0>
0

>  <SCORE.INTRA.VDW>
-0.205278

>  <SCORE.INTRA.VDW.0>
-3.04122

>  <SCORE.INTRA.norm>
-0.155458

>  <SCORE.RESTR>
0

>  <SCORE.RESTR.CAVITY>
0

>  <SCORE.RESTR.norm>
0

>  <SCORE.SYSTEM>
-15.7399

>  <SCORE.SYSTEM.CONST>
0

>  <SCORE.SYSTEM.DIHEDRAL>
1.57856

>  <SCORE.SYSTEM.POLAR>
-0.246386

>  <SCORE.SYSTEM.VDW>
-15.6915

>  <SCORE.SYSTEM.norm>
-0.715451

>  <SCORE.heavy>
22

>  <SCORE.norm>
-1.74113

$$$$
612.pdb
  rDOCK(R)          3D
libRbt.so/2013.1/901 2013/11/27
 23 24  0  0  0  0  0  0  0  0999 V2000
   -1.2600  -36.9957   24.1956 C   0  0  0  0  0  0
   -0.4266  -37.0001   25.4686 C   0  0  0  0  0  0
   -0.3748  -38.3783   26.0740 C   0  0  0  0  0  0
   -1.7813  -38.8994   26.3525 C   0  0  0  0  0  0
   -2.6053  -38.9075   25.0715 C   0  0  0  0  0  0
   -2.6621  -37.5155   24.4815 C   0  0  0  0  0  0
   -1.3793  -35.2396   23.7020 S   0  0  0  0  0  0
   -2.7918  -34.4642   24.6307 C   0  0  0  0  0  0
   -2.7013  -34.2094   25.9920 C   0  0  0  0  0  0
   -1.3906  -34.2440   26.8003 C   0  0  0  0  0  0
   -1.4166  -35.1597   28.0014 C   0  0  0  0  0  0
   -0.8152  -32.8966   27.0741 C   0  0  0  0  0  0
   -3.8544  -33.6828   26.7024 C   0  0  0  0  0  0
   -3.8748  -33.4822   27.9098 O   0  0  0  0  0  0
   -3.9805  -34.1956   23.9262 N   0  0  0  0  0  0
   -5.1204  -33.6682   24.5651 C   0  0  0  0  0  0
   -6.1593  -33.4083   23.9612 O   0  0  0  0  0  0
   -4.9945  -33.4495   25.9288 N   0  0  0  0  0  0
   -4.0954  -34.4023   22.4602 C   0  0  0  0  0  0
   -3.4516  -33.3650   21.7286 O   0  0  0  0  0  0
   -4.1231  -32.1116   21.8881 C   0  0  0  0  0  0
   -3.4681  -31.0418   21.0498 C   0  0  0  0  0  0
   -5.7848  -33.0956   26.3971 H   0  0  0  0  0  0
  1  2  1  0  0  0
  1  6  1  0  0  0
  1  7  1  0  0  0
  2  3  1  0  0  0
  3  4  1  0  0  0
  4  5  1  0  0  0
  5  6  1  0  0  0
  7  8  1  0  0  0
  8  9  2  0  0  0
  8 15  1  0  0  0
  9 10  1  0  0  0
  9 13  1  0  0  0
 10 11  1  0  0  0
 10 12  1  0  0  0
 13 14  2  0  0  0
 13 18  1  0  0  0
 15 16  1  0  0  0
 15 19  1  0  0  0
 16 17  2  0  0  0
 16 18  1  0  0  0
 18 23  1  0  0  0
 19 20  1  0  0  0
 20 21  1  0  0  0
 21 22  1  0  0  0
M  END
>  <CHROM.0>
-176.64007649,-177.78583006,-179.57405964,3.18330354,4.88030034

>  <CHROM.1>
-84.73830682,71.65452020,-125.18769216,-76.50098288,-67.34382934,-177.08596940
-2.79026775,-34.84026423,24.82542672,-0.32567675,1.05715194,-1.80339543

>  <FORMUL>
      612    C16 H26 N2 O3 S1

>  <HET>
 612  A 999      22

>  <HETNAM>
     612 6-(cyclohexylsulfanyl)-1-(ethoxymethyl)-5-(1-methylethy
   2 612 l)pyrimidine-2,4(1H,3H)-dione

>  <HETSYN>
     612 TNK-6123

>  <Name>
612.pdb

>  <RI>
0

>  <Rbt.Current_Directory>
/home/malgorzata/Desktop/rDOCK_IFD/Wyniki/9_hiv_rt/IFD

>  <Rbt.Executable>
rbdock ($Id: //depot/dev/client3/rdock/2013.1/src/exe/rbdock.cxx#4 $)

>  <Rbt.Library>
libRbt.so (2013.1, Build901 2013/11/27)

>  <Rbt.Parameter_File>
/home/malgorzata/Desktop/rDock_2013.1_src/data/scripts/dock.prm

>  <Rbt.Receptor>
cavity.prm

>  <SCORE>
-29.3549

>  <SCORE.INTER>
-10.4157

>  <SCORE.INTER.CONST>
1

>  <SCORE.INTER.POLAR>
0

>  <SCORE.INTER.REPUL>
0

>  <SCORE.INTER.ROT>
6

>  <SCORE.INTER.VDW>
-21.8157

>  <SCORE.INTER.norm>
-0.473441

>  <SCORE.INTRA>
-2.62794

>  <SCORE.INTRA.DIHEDRAL>
-5.5664

>  <SCORE.INTRA.DIHEDRAL.0>
11.8882

>  <SCORE.INTRA.POLAR>
0

>  <SCORE.INTRA.POLAR.0>
0

>  <SCORE.INTRA.REPUL>
0

>  <SCORE.INTRA.REPUL.0>
0

>  <SCORE.INTRA.VDW>
0.155262

>  <SCORE.INTRA.VDW.0>
-3.04122

>  <SCORE.INTRA.norm>
-0.119452

>  <SCORE.RESTR>
0

>  <SCORE.RESTR.CAVITY>
0

>  <SCORE.RESTR.norm>
0

>  <SCORE.SYSTEM>
-16.3113

>  <SCORE.SYSTEM.CONST>
0

>  <SCORE.SYSTEM.DIHEDRAL>
0.0901945

>  <SCORE.SYSTEM.POLAR>
-0.254024

>  <SCORE.SYSTEM.VDW>
-15.4927

>  <SCORE.SYSTEM.norm>
-0.741423

>  <SCORE.heavy>
22

>  <SCORE.norm>
-1.33432

$$$$
612.pdb
  rDOCK(R)          3D
libRbt.so/2013.1/901 2013/11/27
 23 24  0  0  0  0  0  0  0  0999 V2000
   -2.0649  -33.6669   27.0225 C   0  0  0  0  0  0
   -2.2193  -33.4729   28.5237 C   0  0  0  0  0  0
   -1.3183  -32.3729   29.0203 C   0  0  0  0  0  0
    0.1364  -32.6638   28.6644 C   0  0  0  0  0  0
    0.2870  -32.8412   27.1591 C   0  0  0  0  0  0
   -0.6115  -33.9581   26.6751 C   0  0  0  0  0  0
   -3.0666  -35.1423   26.6202 S   0  0  0  0  0  0
   -2.8223  -35.5441   24.8209 C   0  0  0  0  0  0
   -1.9789  -36.5723   24.4237 C   0  0  0  0  0  0
   -1.4130  -37.6497   25.3678 C   0  0  0  0  0  0
    0.0909  -37.6348   25.5093 C   0  0  0  0  0  0
   -1.9906  -39.0063   25.1497 C   0  0  0  0  0  0
   -1.7444  -36.8027   23.0082 C   0  0  0  0  0  0
   -0.9749  -37.6514   22.5766 O   0  0  0  0  0  0
   -3.4715  -34.7374   23.8673 N   0  0  0  0  0  0
   -3.2916  -34.9315   22.4831 C   0  0  0  0  0  0
   -3.8669  -34.2499   21.6370 O   0  0  0  0  0  0
   -2.4241  -35.9544   22.1302 N   0  0  0  0  0  0
   -4.4238  -33.6658   24.2541 C   0  0  0  0  0  0
   -4.0834  -32.4175   23.6611 O   0  0  0  0  0  0
   -5.0282  -31.3975   23.9991 C   0  0  0  0  0  0
   -4.9045  -30.2205   23.0634 C   0  0  0  0  0  0
   -2.2726  -36.0965   21.1679 H   0  0  0  0  0  0
  1  2  1  0  0  0
  1  6  1  0  0  0
  1  7  1  0  0  0
  2  3  1  0  0  0
  3  4  1  0  0  0
  4  5  1  0  0  0
  5  6  1  0  0  0
  7  8  1  0  0  0
  8  9  2  0  0  0
  8 15  1  0  0  0
  9 10  1  0  0  0
  9 13  1  0  0  0
 10 11  1  0  0  0
 10 12  1  0  0  0
 13 14  2  0  0  0
 13 18  1  0  0  0
 15 16  1  0  0  0
 15 19  1  0  0  0
 16 17  2  0  0  0
 16 18  1  0  0  0
 18 23  1  0  0  0
 19 20  1  0  0  0
 20 21  1  0  0  0
 21 22  1  0  0  0
M  END
>  <CHROM.0>
-59.22742493,-177.76530226,5.27185833,-8.64162511,-170.71881665

>  <CHROM.1>
-175.25238392,101.71512940,-116.56363426,127.35694467,178.02878675,-163.06396317
-2.37877684,-34.66504722,25.04041480,-1.42785452,0.94193844,-2.44446022

>  <FORMUL>
      612    C16 H26 N2 O3 S1

>  <HET>
 612  A 999      22

>  <HETNAM>
     612 6-(cyclohexylsulfanyl)-1-(ethoxymethyl)-5-(1-methylethy
   2 612 l)pyrimidine-2,4(1H,3H)-dione

>  <HETSYN>
     612 TNK-6123

>  <Name>
612.pdb

>  <RI>
0

>  <Rbt.Current_Directory>
/home/malgorzata/Desktop/rDOCK_IFD/Wyniki/9_hiv_rt/IFD

>  <Rbt.Executable>
rbdock ($Id: //depot/dev/client3/rdock/2013.1/src/exe/rbdock.cxx#4 $)

>  <Rbt.Library>
libRbt.so (2013.1, Build901 2013/11/27)

>  <Rbt.Parameter_File>
/home/malgorzata/Desktop/rDock_2013.1_src/data/scripts/dock.prm

>  <Rbt.Receptor>
cavity.prm

>  <SCORE>
-32.2955

>  <SCORE.INTER>
-14.0904

>  <SCORE.INTER.CONST>
1

>  <SCORE.INTER.POLAR>
-0.679922

>  <SCORE.INTER.REPUL>
0.00997303

>  <SCORE.INTER.ROT>
6

>  <SCORE.INTER.VDW>
-23.2285

>  <SCORE.INTER.norm>
-0.640473

>  <SCORE.INTRA>
-2.21835

>  <SCORE.INTRA.DIHEDRAL>
-5.50887

>  <SCORE.INTRA.DIHEDRAL.0>
11.8882

>  <SCORE.INTRA.POLAR>
0

>  <SCORE.INTRA.POLAR.0>
0

>  <SCORE.INTRA.REPUL>
0

>  <SCORE.INTRA.REPUL.0>
0

>  <SCORE.INTRA.VDW>
0.536087

>  <SCORE.INTRA.VDW.0>
-3.04122

>  <SCORE.INTRA.norm>
-0.100834

>  <SCORE.RESTR>
0

>  <SCORE.RESTR.CAVITY>
0

>  <SCORE.RESTR.norm>
0

>  <SCORE.SYSTEM>
-15.9868

>  <SCORE.SYSTEM.CONST>
0

>  <SCORE.SYSTEM.DIHEDRAL>
0.286216

>  <SCORE.SYSTEM.POLAR>
-0.239408

>  <SCORE.SYSTEM.VDW>
-15.3159

>  <SCORE.SYSTEM.norm>
-0.726671

>  <SCORE.heavy>
22

>  <SCORE.norm>
-1.46798

$$$$
612.pdb
  rDOCK(R)          3D
libRbt.so/2013.1/901 2013/11/27
 23 24  0  0  0  0  0  0  0  0999 V2000
   -1.6772  -33.9132   27.2519 C   0  0  0  0  0  0
   -2.5262  -33.7575   28.5049 C   0  0  0  0  0  0
   -2.1061  -32.5447   29.2930 C   0  0  0  0  0  0
   -0.6260  -32.6212   29.6547 C   0  0  0  0  0  0
    0.2193  -32.7610   28.3953 C   0  0  0  0  0  0
   -0.2021  -33.9903   27.6206 C   0  0  0  0  0  0
   -2.1797  -35.5128   26.5233 S   0  0  0  0  0  0
   -2.2026  -35.3327   24.6724 C   0  0  0  0  0  0
   -3.1850  -34.5865   24.0365 C   0  0  0  0  0  0
   -4.1416  -33.6143   24.7521 C   0  0  0  0  0  0
   -5.5938  -34.0294   24.7282 C   0  0  0  0  0  0
   -3.9121  -32.1817   24.4107 C   0  0  0  0  0  0
   -3.2232  -34.5381   22.5847 C   0  0  0  0  0  0
   -4.0866  -33.9492   21.9473 O   0  0  0  0  0  0
   -1.2287  -36.0235   23.9269 N   0  0  0  0  0  0
   -1.2114  -35.9939   22.5182 C   0  0  0  0  0  0
   -0.3560  -36.5741   21.8524 O   0  0  0  0  0  0
   -2.2231  -35.2553   21.9228 N   0  0  0  0  0  0
   -0.1300  -36.7849   24.5737 C   0  0  0  0  0  0
    1.0421  -36.8089   23.7667 O   0  0  0  0  0  0
    2.1898  -37.2210   24.5152 C   0  0  0  0  0  0
    2.8919  -36.0301   25.1194 C   0  0  0  0  0  0
   -2.2381  -35.2344   20.9387 H   0  0  0  0  0  0
  1  2  1  0  0  0
  1  6  1  0  0  0
  1  7  1  0  0  0
  2  3  1  0  0  0
  3  4  1  0  0  0
  4  5  1  0  0  0
  5  6  1  0  0  0
  7  8  1  0  0  0
  8  9  2  0  0  0
  8 15  1  0  0  0
  9 10  1  0  0  0
  9 13  1  0  0  0
 10 11  1  0  0  0
 10 12  1  0  0  0
 13 14  2  0  0  0
 13 18  1  0  0  0
 15 16  1  0  0  0
 15 19  1  0  0  0
 16 17  2  0  0  0
 16 18  1  0  0  0
 18 23  1  0  0  0
 19 20  1  0  0  0
 20 21  1  0  0  0
 21 22  1  0  0  0
M  END
>  <CHROM.0>
-175.78080459,-178.02466838,6.87382315,1.94311262,-167.94590086

>  <CHROM.1>
141.82121327,-71.61979946,-113.96163955,-150.01567499,164.59028224,-90.77275654
-1.57046710,-34.78263149,25.16714046,-1.63125841,0.43856545,-1.98147634

>  <FORMUL>
      612    C16 H26 N2 O3 S1

>  <HET>
 612  A 999      22

>  <HETNAM>
     612 6-(cyclohexylsulfanyl)-1-(ethoxymethyl)-5-(1-methylethy
   2 612 l)pyrimidine-2,4(1H,3H)-dione

>  <HETSYN>
     612 TNK-6123

>  <Name>
612.pdb

>  <RI>
0

>  <Rbt.Current_Directory>
/home/malgorzata/Desktop/rDOCK_IFD/Wyniki/9_hiv_rt/IFD

>  <Rbt.Executable>
rbdock ($Id: //depot/dev/client3/rdock/2013.1/src/exe/rbdock.cxx#4 $)

>  <Rbt.Library>
libRbt.so (2013.1, Build901 2013/11/27)

>  <Rbt.Parameter_File>
/home/malgorzata/Desktop/rDock_2013.1_src/data/scripts/dock.prm

>  <Rbt.Receptor>
cavity.prm

>  <SCORE>
-26.5106

>  <SCORE.INTER>
-12.9255

>  <SCORE.INTER.CONST>
1

>  <SCORE.INTER.POLAR>
-0.916515

>  <SCORE.INTER.REPUL>
0.0897639

>  <SCORE.INTER.ROT>
6

>  <SCORE.INTER.VDW>
-21.6582

>  <SCORE.INTER.norm>
-0.587524

>  <SCORE.INTRA>
2.40641

>  <SCORE.INTRA.DIHEDRAL>
-0.354553

>  <SCORE.INTRA.DIHEDRAL.0>
11.8882

>  <SCORE.INTRA.POLAR>
0

>  <SCORE.INTRA.POLAR.0>
0

>  <SCORE.INTRA.REPUL>
0

>  <SCORE.INTRA.REPUL.0>
0

>  <SCORE.INTRA.VDW>
2.58369

>  <SCORE.INTRA.VDW.0>
-3.04122

>  <SCORE.INTRA.norm>
0.109382

>  <SCORE.RESTR>
0

>  <SCORE.RESTR.CAVITY>
0

>  <SCORE.RESTR.norm>
0

>  <SCORE.SYSTEM>
-15.9915

>  <SCORE.SYSTEM.CONST>
0

>  <SCORE.SYSTEM.DIHEDRAL>
0.336665

>  <SCORE.SYSTEM.POLAR>
-0.26373

>  <SCORE.SYSTEM.VDW>
-15.2631

>  <SCORE.SYSTEM.norm>
-0.726884

>  <SCORE.heavy>
22

>  <SCORE.norm>
-1.20503

$$$$
