HMD.pdb
  rDOCK(R)          3D
libRbt.so/2013.1/901 2013/11/27
 24 26  0  0  0  0  0  0  0  0999 V2000
    7.1724   23.8732    6.3234 Br  0  0  0  0  0  0
    4.7685   27.6059    3.3293 O   0  0  0  0  0  0
    0.2300   27.8577    9.0798 O   0  0  0  0  0  0
    5.6490   25.9311    5.2639 N   0  0  0  0  0  0
    3.4518   28.8045    4.7695 N   0  0  0  0  0  0
    1.0969   26.3918   10.6258 N   0  0  0  0  0  0
    2.8179   25.5757    9.4368 N   0  0  0  0  0  0
    2.5101   24.7767   11.5985 N   0  0  0  0  0  0
    5.7440   25.0493    6.2613 C   0  0  0  0  0  0
    4.7025   25.1757    7.1329 C   0  0  0  0  0  0
    3.8969   26.2370    6.6397 C   0  0  0  0  0  0
    4.5399   26.6806    5.4430 C   0  0  0  0  0  0
    4.2585   27.7274    4.4509 C   0  0  0  0  0  0
    2.7738   29.0933    6.0448 C   0  0  0  0  0  0
    1.8881   27.9591    6.5279 C   0  0  0  0  0  0
    2.6560   26.8874    7.2965 C   0  0  0  0  0  0
    2.2354   26.5214    8.5796 C   0  0  0  0  0  0
    1.0725   27.0139    9.4229 C   0  0  0  0  0  0
    2.1444   25.5595   10.6017 C   0  0  0  0  0  0
    6.2849   26.0206    4.5177 H   0  0  0  0  0  0
    3.3127   29.4632    4.0513 H   0  0  0  0  0  0
    3.5962   25.0130    9.2202 H   0  0  0  0  0  0
    2.0012   24.7826   12.4413 H   0  0  0  0  0  0
    3.2919   24.1866   11.4997 H   0  0  0  0  0  0
  1  9  1  0  0  0
  2 13  2  0  0  0
  3 18  2  0  0  0
  4  9  1  0  0  0
  4 12  1  0  0  0
  4 20  1  0  0  0
  5 13  1  0  0  0
  5 14  1  0  0  0
  5 21  1  0  0  0
  6 18  1  0  0  0
  6 19  2  0  0  0
  7 17  1  0  0  0
  7 19  1  0  0  0
  7 22  1  0  0  0
  8 19  1  0  0  0
  8 23  1  0  0  0
  8 24  1  0  0  0
  9 10  2  0  0  0
 10 11  1  0  0  0
 11 12  2  0  0  0
 11 16  1  0  0  0
 12 13  1  0  0  0
 14 15  1  0  0  0
 15 16  1  0  0  0
 16 17  2  0  0  0
 17 18  1  0  0  0
M  END
>  <CHROM.0>
140.16285675,173.66052760,152.01136556,-132.43091123,-61.11066012

>  <CHROM.1>
4.11752762,26.03074005,7.10835276,-0.28514283,-0.63895678,2.17293640

>  <FORMUL>
      HMD    C11 H10 Br1 N5 O2

>  <HET>
 HMD  A 400      19

>  <HETNAM>
     HMD 4-(5-AMINO-4-OXO-4H-PYRAZOL-3-YL)-2-BROMO-4,5,6,7-TETRA
   2 HMD HYDRO-3AH-PYRROLO[2,3-C]AZEPIN-8-ONE

>  <HETSYN>
     HMD HYMENIALDISINE

>  <Name>
HMD.pdb

>  <RI>
0

>  <Rbt.Current_Directory>
/home/malgorzata/Desktop/rDOCK_IFD/Wyniki/2c_CDK2/IFD

>  <Rbt.Executable>
rbdock ($Id: //depot/dev/client3/rdock/2013.1/src/exe/rbdock.cxx#4 $)

>  <Rbt.Library>
libRbt.so (2013.1, Build901 2013/11/27)

>  <Rbt.Parameter_File>
/home/malgorzata/Desktop/rDock_2013.1_src/data/scripts/hard_docking.prm

>  <Rbt.Receptor>
cavity.prm

>  <SCORE>
-14.2671

>  <SCORE.INTER>
-14.0744

>  <SCORE.INTER.CONST>
1

>  <SCORE.INTER.POLAR>
-1.64648

>  <SCORE.INTER.REPUL>
0.00557481

>  <SCORE.INTER.ROT>
0

>  <SCORE.INTER.VDW>
-13.9042

>  <SCORE.INTER.norm>
-0.740757

>  <SCORE.INTRA>
0

>  <SCORE.INTRA.DIHEDRAL>
0

>  <SCORE.INTRA.DIHEDRAL.0>
0

>  <SCORE.INTRA.POLAR>
0

>  <SCORE.INTRA.POLAR.0>
0

>  <SCORE.INTRA.REPUL>
0

>  <SCORE.INTRA.REPUL.0>
0

>  <SCORE.INTRA.VDW>
0

>  <SCORE.INTRA.VDW.0>
0

>  <SCORE.INTRA.norm>
0

>  <SCORE.RESTR>
0

>  <SCORE.RESTR.CAVITY>
0

>  <SCORE.RESTR.norm>
0

>  <SCORE.SYSTEM>
-0.192721

>  <SCORE.SYSTEM.CONST>
0

>  <SCORE.SYSTEM.DIHEDRAL>
1.63063

>  <SCORE.SYSTEM.REPUL>
0.127995

>  <SCORE.SYSTEM.VDW>
-1.64801

>  <SCORE.SYSTEM.norm>
-0.0101432

>  <SCORE.heavy>
19

>  <SCORE.norm>
-0.750901

$$$$
HMD.pdb
  rDOCK(R)          3D
libRbt.so/2013.1/901 2013/11/27
 24 26  0  0  0  0  0  0  0  0999 V2000
    0.6466   20.1778   14.9084 Br  0  0  0  0  0  0
    3.3367   21.7637   10.5582 O   0  0  0  0  0  0
   -2.1970   26.5503   10.1150 O   0  0  0  0  0  0
    1.6912   21.4595   12.6849 N   0  0  0  0  0  0
    2.5613   23.8648   10.0799 N   0  0  0  0  0  0
   -3.5024   26.1712   11.9704 N   0  0  0  0  0  0
   -2.4078   24.4139   12.8396 N   0  0  0  0  0  0
   -4.2823   25.1984   13.9698 N   0  0  0  0  0  0
    0.6354   21.3759   13.4971 C   0  0  0  0  0  0
   -0.3413   22.2540   13.1291 C   0  0  0  0  0  0
    0.1569   22.9521   11.9964 C   0  0  0  0  0  0
    1.4534   22.4043   11.7495 C   0  0  0  0  0  0
    2.5074   22.6610   10.7584 C   0  0  0  0  0  0
    1.6590   25.0228   10.1992 C   0  0  0  0  0  0
    0.1974   24.6737    9.9844 C   0  0  0  0  0  0
   -0.4817   24.1442   11.2443 C   0  0  0  0  0  0
   -1.6567   24.7493   11.7031 C   0  0  0  0  0  0
   -2.4553   25.9165   11.1499 C   0  0  0  0  0  0
   -3.4365   25.2731   12.9602 C   0  0  0  0  0  0
    2.5112   20.9195   12.7561 H   0  0  0  0  0  0
    3.2979   23.9601    9.4337 H   0  0  0  0  0  0
   -2.2131   23.6680   13.4520 H   0  0  0  0  0  0
   -5.0273   25.8385   14.0362 H   0  0  0  0  0  0
   -4.1685   24.5024   14.6567 H   0  0  0  0  0  0
  1  9  1  0  0  0
  2 13  2  0  0  0
  3 18  2  0  0  0
  4  9  1  0  0  0
  4 12  1  0  0  0
  4 20  1  0  0  0
  5 13  1  0  0  0
  5 14  1  0  0  0
  5 21  1  0  0  0
  6 18  1  0  0  0
  6 19  2  0  0  0
  7 17  1  0  0  0
  7 19  1  0  0  0
  7 22  1  0  0  0
  8 19  1  0  0  0
  8 23  1  0  0  0
  8 24  1  0  0  0
  9 10  2  0  0  0
 10 11  1  0  0  0
 11 12  2  0  0  0
 11 16  1  0  0  0
 12 13  1  0  0  0
 14 15  1  0  0  0
 15 16  1  0  0  0
 16 17  2  0  0  0
 17 18  1  0  0  0
M  END
>  <CHROM.0>
-100.83320049,173.76447330,-129.08148479,103.20726647,-61.11066012

>  <CHROM.1>
-0.11325239,23.02749681,12.47828661,0.91083242,-0.50595135,2.33437781

>  <FORMUL>
      HMD    C11 H10 Br1 N5 O2

>  <HET>
 HMD  A 400      19

>  <HETNAM>
     HMD 4-(5-AMINO-4-OXO-4H-PYRAZOL-3-YL)-2-BROMO-4,5,6,7-TETRA
   2 HMD HYDRO-3AH-PYRROLO[2,3-C]AZEPIN-8-ONE

>  <HETSYN>
     HMD HYMENIALDISINE

>  <Name>
HMD.pdb

>  <RI>
0

>  <Rbt.Current_Directory>
/home/malgorzata/Desktop/rDOCK_IFD/Wyniki/2c_CDK2/IFD

>  <Rbt.Executable>
rbdock ($Id: //depot/dev/client3/rdock/2013.1/src/exe/rbdock.cxx#4 $)

>  <Rbt.Library>
libRbt.so (2013.1, Build901 2013/11/27)

>  <Rbt.Parameter_File>
/home/malgorzata/Desktop/rDock_2013.1_src/data/scripts/hard_docking.prm

>  <Rbt.Receptor>
cavity.prm

>  <SCORE>
-13.3735

>  <SCORE.INTER>
-12.667

>  <SCORE.INTER.CONST>
1

>  <SCORE.INTER.POLAR>
-2.22012

>  <SCORE.INTER.REPUL>
0

>  <SCORE.INTER.ROT>
0

>  <SCORE.INTER.VDW>
-10.5186

>  <SCORE.INTER.norm>
-0.666686

>  <SCORE.INTRA>
0

>  <SCORE.INTRA.DIHEDRAL>
0

>  <SCORE.INTRA.DIHEDRAL.0>
0

>  <SCORE.INTRA.POLAR>
0

>  <SCORE.INTRA.POLAR.0>
0

>  <SCORE.INTRA.REPUL>
0

>  <SCORE.INTRA.REPUL.0>
0

>  <SCORE.INTRA.VDW>
0

>  <SCORE.INTRA.VDW.0>
0

>  <SCORE.INTRA.norm>
0

>  <SCORE.RESTR>
0

>  <SCORE.RESTR.CAVITY>
0

>  <SCORE.RESTR.norm>
0

>  <SCORE.SYSTEM>
-0.706511

>  <SCORE.SYSTEM.CONST>
0

>  <SCORE.SYSTEM.DIHEDRAL>
1.63124

>  <SCORE.SYSTEM.VDW>
-1.52213

>  <SCORE.SYSTEM.norm>
-0.0371848

>  <SCORE.heavy>
19

>  <SCORE.norm>
-0.70387

$$$$
HMD.pdb
  rDOCK(R)          3D
libRbt.so/2013.1/901 2013/11/27
 24 26  0  0  0  0  0  0  0  0999 V2000
    1.9985   29.7196    5.5671 Br  0  0  0  0  0  0
    4.4899   28.8565    0.9062 O   0  0  0  0  0  0
    8.0061   23.7950    4.8745 O   0  0  0  0  0  0
    3.4722   28.7895    3.4126 N   0  0  0  0  0  0
    5.4411   26.7810    1.0851 N   0  0  0  0  0  0
    7.0443   23.8580    6.9629 N   0  0  0  0  0  0
    5.6198   25.5675    6.6623 N   0  0  0  0  0  0
    5.6513   24.5272    8.7415 N   0  0  0  0  0  0
    3.3018   28.7027    4.7336 C   0  0  0  0  0  0
    4.1740   27.8115    5.2864 C   0  0  0  0  0  0
    4.9451   27.2906    4.2127 C   0  0  0  0  0  0
    4.4631   27.9508    3.0405 C   0  0  0  0  0  0
    4.8003   27.8876    1.6117 C   0  0  0  0  0  0
    5.8762   25.5586    1.7822 C   0  0  0  0  0  0
    6.7756   25.8314    2.9743 C   0  0  0  0  0  0
    5.9984   26.1577    4.2465 C   0  0  0  0  0  0
    6.2408   25.4234    5.4125 C   0  0  0  0  0  0
    7.2024   24.2803    5.6857 C   0  0  0  0  0  0
    6.0968   24.6324    7.5043 C   0  0  0  0  0  0
    2.9582   29.3713    2.8072 H   0  0  0  0  0  0
    5.6309   26.8145    0.1197 H   0  0  0  0  0  0
    4.9424   26.2454    6.8876 H   0  0  0  0  0  0
    6.0160   23.8348    9.3389 H   0  0  0  0  0  0
    4.9541   25.1412    9.0675 H   0  0  0  0  0  0
  1  9  1  0  0  0
  2 13  2  0  0  0
  3 18  2  0  0  0
  4  9  1  0  0  0
  4 12  1  0  0  0
  4 20  1  0  0  0
  5 13  1  0  0  0
  5 14  1  0  0  0
  5 21  1  0  0  0
  6 18  1  0  0  0
  6 19  2  0  0  0
  7 17  1  0  0  0
  7 19  1  0  0  0
  7 22  1  0  0  0
  8 19  1  0  0  0
  8 23  1  0  0  0
  8 24  1  0  0  0
  9 10  2  0  0  0
 10 11  1  0  0  0
 11 12  2  0  0  0
 11 16  1  0  0  0
 12 13  1  0  0  0
 14 15  1  0  0  0
 15 16  1  0  0  0
 16 17  2  0  0  0
 17 18  1  0  0  0
M  END
>  <CHROM.0>
120.53664139,-171.47205949,-123.90499514,103.40901610,-61.11066012

>  <CHROM.1>
4.67261540,27.13949491,4.67505913,2.74256114,0.80488864,-1.28999972

>  <FORMUL>
      HMD    C11 H10 Br1 N5 O2

>  <HET>
 HMD  A 400      19

>  <HETNAM>
     HMD 4-(5-AMINO-4-OXO-4H-PYRAZOL-3-YL)-2-BROMO-4,5,6,7-TETRA
   2 HMD HYDRO-3AH-PYRROLO[2,3-C]AZEPIN-8-ONE

>  <HETSYN>
     HMD HYMENIALDISINE

>  <Name>
HMD.pdb

>  <RI>
0

>  <Rbt.Current_Directory>
/home/malgorzata/Desktop/rDOCK_IFD/Wyniki/2c_CDK2/IFD

>  <Rbt.Executable>
rbdock ($Id: //depot/dev/client3/rdock/2013.1/src/exe/rbdock.cxx#4 $)

>  <Rbt.Library>
libRbt.so (2013.1, Build901 2013/11/27)

>  <Rbt.Parameter_File>
/home/malgorzata/Desktop/rDock_2013.1_src/data/scripts/hard_docking.prm

>  <Rbt.Receptor>
cavity.prm

>  <SCORE>
-13.2753

>  <SCORE.INTER>
-12.6386

>  <SCORE.INTER.CONST>
1

>  <SCORE.INTER.POLAR>
-0.489898

>  <SCORE.INTER.REPUL>
0

>  <SCORE.INTER.ROT>
0

>  <SCORE.INTER.VDW>
-16.3729

>  <SCORE.INTER.norm>
-0.665189

>  <SCORE.INTRA>
0

>  <SCORE.INTRA.DIHEDRAL>
0

>  <SCORE.INTRA.DIHEDRAL.0>
0

>  <SCORE.INTRA.POLAR>
0

>  <SCORE.INTRA.POLAR.0>
0

>  <SCORE.INTRA.REPUL>
0

>  <SCORE.INTRA.REPUL.0>
0

>  <SCORE.INTRA.VDW>
0

>  <SCORE.INTRA.VDW.0>
0

>  <SCORE.INTRA.norm>
0

>  <SCORE.RESTR>
0

>  <SCORE.RESTR.CAVITY>
0

>  <SCORE.RESTR.norm>
0

>  <SCORE.SYSTEM>
-0.636756

>  <SCORE.SYSTEM.CONST>
0

>  <SCORE.SYSTEM.DIHEDRAL>
1.63585

>  <SCORE.SYSTEM.REPUL>
0.000285214

>  <SCORE.SYSTEM.VDW>
-1.45611

>  <SCORE.SYSTEM.norm>
-0.0335135

>  <SCORE.heavy>
19

>  <SCORE.norm>
-0.698702

$$$$
HMD.pdb
  rDOCK(R)          3D
libRbt.so/2013.1/901 2013/11/27
 24 26  0  0  0  0  0  0  0  0999 V2000
   -0.4002   24.6093    8.8676 Br  0  0  0  0  0  0
   -4.0138   26.2515   12.4622 O   0  0  0  0  0  0
   -1.6949   20.2815   16.0276 O   0  0  0  0  0  0
   -2.0081   25.0787   11.0750 N   0  0  0  0  0  0
   -3.4700   25.1921   14.4184 N   0  0  0  0  0  0
   -0.0094   19.3968   14.7365 N   0  0  0  0  0  0
   -0.1009   20.8076   12.9920 N   0  0  0  0  0  0
    1.4898   19.1124   12.9411 N   0  0  0  0  0  0
   -1.1720   24.2100   10.5023 C   0  0  0  0  0  0
   -1.0099   23.0979   11.2752 C   0  0  0  0  0  0
   -1.8056   23.2993   12.4349 C   0  0  0  0  0  0
   -2.4266   24.5738   12.2557 C   0  0  0  0  0  0
   -3.3516   25.3893   13.0548 C   0  0  0  0  0  0
   -2.7627   24.2171   15.2660 C   0  0  0  0  0  0
   -2.9078   22.7839   14.7871 C   0  0  0  0  0  0
   -1.9036   22.4131   13.6995 C   0  0  0  0  0  0
   -1.0841   21.2917   13.8680 C   0  0  0  0  0  0
   -0.9922   20.2893   15.0050 C   0  0  0  0  0  0
    0.5001   19.7394   13.5476 C   0  0  0  0  0  0
   -2.2765   25.9473   10.6976 H   0  0  0  0  0  0
   -4.1096   25.7792   14.8826 H   0  0  0  0  0  0
    0.1151   21.1889   12.1105 H   0  0  0  0  0  0
    1.9137   18.3330   13.3678 H   0  0  0  0  0  0
    1.8043   19.4239   12.0617 H   0  0  0  0  0  0
  1  9  1  0  0  0
  2 13  2  0  0  0
  3 18  2  0  0  0
  4  9  1  0  0  0
  4 12  1  0  0  0
  4 20  1  0  0  0
  5 13  1  0  0  0
  5 14  1  0  0  0
  5 21  1  0  0  0
  6 18  1  0  0  0
  6 19  2  0  0  0
  7 17  1  0  0  0
  7 19  1  0  0  0
  7 22  1  0  0  0
  8 19  1  0  0  0
  8 23  1  0  0  0
  8 24  1  0  0  0
  9 10  2  0  0  0
 10 11  1  0  0  0
 11 12  2  0  0  0
 11 16  1  0  0  0
 12 13  1  0  0  0
 14 15  1  0  0  0
 15 16  1  0  0  0
 16 17  2  0  0  0
 17 18  1  0  0  0
M  END
>  <CHROM.0>
119.38698491,173.64245568,-144.56453329,108.97790593,-61.11066012

>  <CHROM.1>
-1.30484422,23.11938373,12.26839424,-1.65735548,-0.83697294,2.24162685

>  <FORMUL>
      HMD    C11 H10 Br1 N5 O2

>  <HET>
 HMD  A 400      19

>  <HETNAM>
     HMD 4-(5-AMINO-4-OXO-4H-PYRAZOL-3-YL)-2-BROMO-4,5,6,7-TETRA
   2 HMD HYDRO-3AH-PYRROLO[2,3-C]AZEPIN-8-ONE

>  <HETSYN>
     HMD HYMENIALDISINE

>  <Name>
HMD.pdb

>  <RI>
0

>  <Rbt.Current_Directory>
/home/malgorzata/Desktop/rDOCK_IFD/Wyniki/2c_CDK2/IFD

>  <Rbt.Executable>
rbdock ($Id: //depot/dev/client3/rdock/2013.1/src/exe/rbdock.cxx#4 $)

>  <Rbt.Library>
libRbt.so (2013.1, Build901 2013/11/27)

>  <Rbt.Parameter_File>
/home/malgorzata/Desktop/rDock_2013.1_src/data/scripts/hard_docking.prm

>  <Rbt.Receptor>
cavity.prm

>  <SCORE>
-15.068

>  <SCORE.INTER>
-14.4537

>  <SCORE.INTER.CONST>
1

>  <SCORE.INTER.POLAR>
-2.36812

>  <SCORE.INTER.REPUL>
0.0462028

>  <SCORE.INTER.ROT>
0

>  <SCORE.INTER.VDW>
-12.0331

>  <SCORE.INTER.norm>
-0.760723

>  <SCORE.INTRA>
0

>  <SCORE.INTRA.DIHEDRAL>
0

>  <SCORE.INTRA.DIHEDRAL.0>
0

>  <SCORE.INTRA.POLAR>
0

>  <SCORE.INTRA.POLAR.0>
0

>  <SCORE.INTRA.REPUL>
0

>  <SCORE.INTRA.REPUL.0>
0

>  <SCORE.INTRA.VDW>
0

>  <SCORE.INTRA.VDW.0>
0

>  <SCORE.INTRA.norm>
0

>  <SCORE.RESTR>
0

>  <SCORE.RESTR.CAVITY>
0

>  <SCORE.RESTR.norm>
0

>  <SCORE.SYSTEM>
-0.614313

>  <SCORE.SYSTEM.CONST>
0

>  <SCORE.SYSTEM.DIHEDRAL>
1.63329

>  <SCORE.SYSTEM.REPUL>
0.0100218

>  <SCORE.SYSTEM.VDW>
-1.48107

>  <SCORE.SYSTEM.norm>
-0.0323323

>  <SCORE.heavy>
19

>  <SCORE.norm>
-0.793055

$$$$
HMD.pdb
  rDOCK(R)          3D
libRbt.so/2013.1/901 2013/11/27
 24 26  0  0  0  0  0  0  0  0999 V2000
    6.1269   25.1150    0.4717 Br  0  0  0  0  0  0
    7.4206   24.6229    5.6448 O   0  0  0  0  0  0
    2.3891   29.9042    6.3679 O   0  0  0  0  0  0
    6.3171   25.1714    3.2356 N   0  0  0  0  0  0
    5.6950   25.5763    6.8102 N   0  0  0  0  0  0
    1.5507   30.2630    4.2563 N   0  0  0  0  0  0
    2.8632   28.8599    3.0941 N   0  0  0  0  0  0
    1.2600   30.0728    1.9257 N   0  0  0  0  0  0
    5.7781   25.7663    2.1692 C   0  0  0  0  0  0
    5.0004   26.8254    2.5352 C   0  0  0  0  0  0
    5.0515   26.8857    3.9538 C   0  0  0  0  0  0
    5.9091   25.8139    4.3513 C   0  0  0  0  0  0
    6.3856   25.3024    5.6437 C   0  0  0  0  0  0
    4.4610   26.3626    6.9789 C   0  0  0  0  0  0
    4.5546   27.7637    6.4024 C   0  0  0  0  0  0
    4.2608   27.8146    4.9057 C   0  0  0  0  0  0
    3.2786   28.6861    4.4229 C   0  0  0  0  0  0
    2.3803   29.6720    5.1490 C   0  0  0  0  0  0
    1.8569   29.7526    3.0578 C   0  0  0  0  0  0
    6.9157   24.3902    3.2125 H   0  0  0  0  0  0
    6.0776   25.1968    7.6340 H   0  0  0  0  0  0
    3.2471   28.4013    2.3122 H   0  0  0  0  0  0
    0.5260   30.7289    1.9247 H   0  0  0  0  0  0
    1.5488   29.6557    1.0820 H   0  0  0  0  0  0
  1  9  1  0  0  0
  2 13  2  0  0  0
  3 18  2  0  0  0
  4  9  1  0  0  0
  4 12  1  0  0  0
  4 20  1  0  0  0
  5 13  1  0  0  0
  5 14  1  0  0  0
  5 21  1  0  0  0
  6 18  1  0  0  0
  6 19  2  0  0  0
  7 17  1  0  0  0
  7 19  1  0  0  0
  7 22  1  0  0  0
  8 19  1  0  0  0
  8 23  1  0  0  0
  8 24  1  0  0  0
  9 10  2  0  0  0
 10 11  1  0  0  0
 11 12  2  0  0  0
 11 16  1  0  0  0
 12 13  1  0  0  0
 14 15  1  0  0  0
 15 16  1  0  0  0
 16 17  2  0  0  0
 17 18  1  0  0  0
M  END
>  <CHROM.0>
-101.28540784,174.21078063,-88.77530434,-139.38486338,-61.11066012

>  <CHROM.1>
4.70003365,26.92078339,3.52239032,0.54778313,0.81301526,-1.64876931

>  <FORMUL>
      HMD    C11 H10 Br1 N5 O2

>  <HET>
 HMD  A 400      19

>  <HETNAM>
     HMD 4-(5-AMINO-4-OXO-4H-PYRAZOL-3-YL)-2-BROMO-4,5,6,7-TETRA
   2 HMD HYDRO-3AH-PYRROLO[2,3-C]AZEPIN-8-ONE

>  <HETSYN>
     HMD HYMENIALDISINE

>  <Name>
HMD.pdb

>  <RI>
0

>  <Rbt.Current_Directory>
/home/malgorzata/Desktop/rDOCK_IFD/Wyniki/2c_CDK2/IFD

>  <Rbt.Executable>
rbdock ($Id: //depot/dev/client3/rdock/2013.1/src/exe/rbdock.cxx#4 $)

>  <Rbt.Library>
libRbt.so (2013.1, Build901 2013/11/27)

>  <Rbt.Parameter_File>
/home/malgorzata/Desktop/rDock_2013.1_src/data/scripts/hard_docking.prm

>  <Rbt.Receptor>
cavity.prm

>  <SCORE>
-12.649

>  <SCORE.INTER>
-12.4039

>  <SCORE.INTER.CONST>
1

>  <SCORE.INTER.POLAR>
0

>  <SCORE.INTER.REPUL>
0

>  <SCORE.INTER.ROT>
0

>  <SCORE.INTER.VDW>
-17.8039

>  <SCORE.INTER.norm>
-0.652835

>  <SCORE.INTRA>
0

>  <SCORE.INTRA.DIHEDRAL>
0

>  <SCORE.INTRA.DIHEDRAL.0>
0

>  <SCORE.INTRA.POLAR>
0

>  <SCORE.INTRA.POLAR.0>
0

>  <SCORE.INTRA.REPUL>
0

>  <SCORE.INTRA.REPUL.0>
0

>  <SCORE.INTRA.VDW>
0

>  <SCORE.INTRA.VDW.0>
0

>  <SCORE.INTRA.norm>
0

>  <SCORE.RESTR>
0

>  <SCORE.RESTR.CAVITY>
0

>  <SCORE.RESTR.norm>
0

>  <SCORE.SYSTEM>
-0.245092

>  <SCORE.SYSTEM.CONST>
0

>  <SCORE.SYSTEM.DIHEDRAL>
1.63329

>  <SCORE.SYSTEM.REPUL>
0.127995

>  <SCORE.SYSTEM.VDW>
-1.70172

>  <SCORE.SYSTEM.norm>
-0.0128996

>  <SCORE.heavy>
19

>  <SCORE.norm>
-0.665734

$$$$
HMD.pdb
  rDOCK(R)          3D
libRbt.so/2013.1/901 2013/11/27
 24 26  0  0  0  0  0  0  0  0999 V2000
   -1.7431   28.3442    9.2118 Br  0  0  0  0  0  0
   -4.4579   25.8644   13.1050 O   0  0  0  0  0  0
    1.0963   21.1109   12.5715 O   0  0  0  0  0  0
   -2.6602   26.7576   11.2903 N   0  0  0  0  0  0
   -2.9641   24.4362   14.0915 N   0  0  0  0  0  0
    2.5274   21.9941   11.0023 N   0  0  0  0  0  0
    1.3373   23.7971   10.3901 N   0  0  0  0  0  0
    3.3966   23.4514    9.3674 N   0  0  0  0  0  0
   -1.7500   26.8609   10.3195 C   0  0  0  0  0  0
   -0.9143   25.7829   10.3096 C   0  0  0  0  0  0
   -1.3352   24.9429   11.3754 C   0  0  0  0  0  0
   -2.4553   25.6059   11.9652 C   0  0  0  0  0  0
   -3.3519   25.3080   13.0905 C   0  0  0  0  0  0
   -1.6960   23.6980   14.2203 C   0  0  0  0  0  0
   -1.3625   22.8542   13.0033 C   0  0  0  0  0  0
   -0.6704   23.6471   11.8982 C   0  0  0  0  0  0
    0.5525   23.1989   11.3874 C   0  0  0  0  0  0
    1.3906   21.9822   11.7386 C   0  0  0  0  0  0
    2.4661   23.0830   10.2269 C   0  0  0  0  0  0
   -3.3670   27.4151   11.4832 H   0  0  0  0  0  0
   -3.6201   24.2901   14.8108 H   0  0  0  0  0  0
    1.0996   24.6105    9.8890 H   0  0  0  0  0  0
    4.2140   22.9122    9.2657 H   0  0  0  0  0  0
    3.2734   24.2654    8.8275 H   0  0  0  0  0  0
  1  9  1  0  0  0
  2 13  2  0  0  0
  3 18  2  0  0  0
  4  9  1  0  0  0
  4 12  1  0  0  0
  4 20  1  0  0  0
  5 13  1  0  0  0
  5 14  1  0  0  0
  5 21  1  0  0  0
  6 18  1  0  0  0
  6 19  2  0  0  0
  7 17  1  0  0  0
  7 19  1  0  0  0
  7 22  1  0  0  0
  8 19  1  0  0  0
  8 23  1  0  0  0
  8 24  1  0  0  0
  9 10  2  0  0  0
 10 11  1  0  0  0
 11 12  2  0  0  0
 11 16  1  0  0  0
 12 13  1  0  0  0
 14 15  1  0  0  0
 15 16  1  0  0  0
 16 17  2  0  0  0
 17 18  1  0  0  0
M  END
>  <CHROM.0>
115.48012628,173.43965853,-124.09573718,-49.05547857,-61.11066012

>  <CHROM.1>
-0.87996774,25.15639627,11.13434965,-2.28555187,-0.57178558,2.43698427

>  <FORMUL>
      HMD    C11 H10 Br1 N5 O2

>  <HET>
 HMD  A 400      19

>  <HETNAM>
     HMD 4-(5-AMINO-4-OXO-4H-PYRAZOL-3-YL)-2-BROMO-4,5,6,7-TETRA
   2 HMD HYDRO-3AH-PYRROLO[2,3-C]AZEPIN-8-ONE

>  <HETSYN>
     HMD HYMENIALDISINE

>  <Name>
HMD.pdb

>  <RI>
0

>  <Rbt.Current_Directory>
/home/malgorzata/Desktop/rDOCK_IFD/Wyniki/2c_CDK2/IFD

>  <Rbt.Executable>
rbdock ($Id: //depot/dev/client3/rdock/2013.1/src/exe/rbdock.cxx#4 $)

>  <Rbt.Library>
libRbt.so (2013.1, Build901 2013/11/27)

>  <Rbt.Parameter_File>
/home/malgorzata/Desktop/rDock_2013.1_src/data/scripts/hard_docking.prm

>  <Rbt.Receptor>
cavity.prm

>  <SCORE>
-14.275

>  <SCORE.INTER>
-14.0138

>  <SCORE.INTER.CONST>
1

>  <SCORE.INTER.POLAR>
-2.49364

>  <SCORE.INTER.REPUL>
0

>  <SCORE.INTER.ROT>
0

>  <SCORE.INTER.VDW>
-10.9354

>  <SCORE.INTER.norm>
-0.737569

>  <SCORE.INTRA>
0

>  <SCORE.INTRA.DIHEDRAL>
0

>  <SCORE.INTRA.DIHEDRAL.0>
0

>  <SCORE.INTRA.POLAR>
0

>  <SCORE.INTRA.POLAR.0>
0

>  <SCORE.INTRA.REPUL>
0

>  <SCORE.INTRA.REPUL.0>
0

>  <SCORE.INTRA.VDW>
0

>  <SCORE.INTRA.VDW.0>
0

>  <SCORE.INTRA.norm>
0

>  <SCORE.RESTR>
0

>  <SCORE.RESTR.CAVITY>
0

>  <SCORE.RESTR.norm>
0

>  <SCORE.SYSTEM>
-0.26114

>  <SCORE.SYSTEM.CONST>
0

>  <SCORE.SYSTEM.DIHEDRAL>
1.6345

>  <SCORE.SYSTEM.REPUL>
0.00987148

>  <SCORE.SYSTEM.VDW>
-1.12775

>  <SCORE.SYSTEM.norm>
-0.0137442

>  <SCORE.heavy>
19

>  <SCORE.norm>
-0.751313

$$$$
HMD.pdb
  rDOCK(R)          3D
libRbt.so/2013.1/901 2013/11/27
 24 26  0  0  0  0  0  0  0  0999 V2000
    1.8142   29.1577    3.1664 Br  0  0  0  0  0  0
    5.4852   27.4762   -0.3510 O   0  0  0  0  0  0
    8.0585   23.9582    5.5424 O   0  0  0  0  0  0
    3.8458   27.9050    1.7588 N   0  0  0  0  0  0
    6.4502   25.6269    0.5943 N   0  0  0  0  0  0
    6.5774   24.4171    7.2413 N   0  0  0  0  0  0
    5.2055   25.8308    6.1638 N   0  0  0  0  0  0
    4.7347   25.3365    8.3864 N   0  0  0  0  0  0
    3.3369   28.1227    2.9734 C   0  0  0  0  0  0
    4.0723   27.4963    3.9363 C   0  0  0  0  0  0
    5.1228   26.8208    3.2589 C   0  0  0  0  0  0
    4.9375   27.1182    1.8735 C   0  0  0  0  0  0
    5.6426   26.7487    0.6384 C   0  0  0  0  0  0
    6.7417   24.6673    1.6730 C   0  0  0  0  0  0
    7.2807   25.3207    2.9327 C   0  0  0  0  0  0
    6.1810   25.8561    3.8453 C   0  0  0  0  0  0
    6.1404   25.4588    5.1861 C   0  0  0  0  0  0
    7.0475   24.5320    5.9762 C   0  0  0  0  0  0
    5.4859   25.1879    7.3122 C   0  0  0  0  0  0
    3.4837   28.2608    0.9153 H   0  0  0  0  0  0
    6.8865   25.4464   -0.2696 H   0  0  0  0  0  0
    4.4621   26.4623    6.0307 H   0  0  0  0  0  0
    4.9603   24.8553    9.2152 H   0  0  0  0  0  0
    3.9487   25.9286    8.3594 H   0  0  0  0  0  0
  1  9  1  0  0  0
  2 13  2  0  0  0
  3 18  2  0  0  0
  4  9  1  0  0  0
  4 12  1  0  0  0
  4 20  1  0  0  0
  5 13  1  0  0  0
  5 14  1  0  0  0
  5 21  1  0  0  0
  6 18  1  0  0  0
  6 19  2  0  0  0
  7 17  1  0  0  0
  7 19  1  0  0  0
  7 22  1  0  0  0
  8 19  1  0  0  0
  8 23  1  0  0  0
  8 24  1  0  0  0
  9 10  2  0  0  0
 10 11  1  0  0  0
 11 12  2  0  0  0
 11 16  1  0  0  0
 12 13  1  0  0  0
 14 15  1  0  0  0
 15 16  1  0  0  0
 16 17  2  0  0  0
 17 18  1  0  0  0
M  END
>  <CHROM.0>
119.33410066,173.39901474,126.70497839,103.29391732,-61.11066012

>  <CHROM.1>
4.74516662,26.75669247,3.66406429,2.43270075,0.65967647,-1.34208001

>  <FORMUL>
      HMD    C11 H10 Br1 N5 O2

>  <HET>
 HMD  A 400      19

>  <HETNAM>
     HMD 4-(5-AMINO-4-OXO-4H-PYRAZOL-3-YL)-2-BROMO-4,5,6,7-TETRA
   2 HMD HYDRO-3AH-PYRROLO[2,3-C]AZEPIN-8-ONE

>  <HETSYN>
     HMD HYMENIALDISINE

>  <Name>
HMD.pdb

>  <RI>
0

>  <Rbt.Current_Directory>
/home/malgorzata/Desktop/rDOCK_IFD/Wyniki/2c_CDK2/IFD

>  <Rbt.Executable>
rbdock ($Id: //depot/dev/client3/rdock/2013.1/src/exe/rbdock.cxx#4 $)

>  <Rbt.Library>
libRbt.so (2013.1, Build901 2013/11/27)

>  <Rbt.Parameter_File>
/home/malgorzata/Desktop/rDock_2013.1_src/data/scripts/hard_docking.prm

>  <Rbt.Receptor>
cavity.prm

>  <SCORE>
-13.3938

>  <SCORE.INTER>
-13.0193

>  <SCORE.INTER.CONST>
1

>  <SCORE.INTER.POLAR>
-0.851162

>  <SCORE.INTER.REPUL>
0

>  <SCORE.INTER.ROT>
0

>  <SCORE.INTER.VDW>
-15.5254

>  <SCORE.INTER.norm>
-0.685228

>  <SCORE.INTRA>
0

>  <SCORE.INTRA.DIHEDRAL>
0

>  <SCORE.INTRA.DIHEDRAL.0>
0

>  <SCORE.INTRA.POLAR>
0

>  <SCORE.INTRA.POLAR.0>
0

>  <SCORE.INTRA.REPUL>
0

>  <SCORE.INTRA.REPUL.0>
0

>  <SCORE.INTRA.VDW>
0

>  <SCORE.INTRA.VDW.0>
0

>  <SCORE.INTRA.norm>
0

>  <SCORE.RESTR>
0.273479

>  <SCORE.RESTR.CAVITY>
0.273479

>  <SCORE.RESTR.norm>
0.0143937

>  <SCORE.SYSTEM>
-0.647981

>  <SCORE.SYSTEM.CONST>
0

>  <SCORE.SYSTEM.DIHEDRAL>
1.63661

>  <SCORE.SYSTEM.REPUL>
8.89703e-05

>  <SCORE.SYSTEM.VDW>
-1.46673

>  <SCORE.SYSTEM.norm>
-0.0341043

>  <SCORE.heavy>
19

>  <SCORE.norm>
-0.704939

$$$$
HMD.pdb
  rDOCK(R)          3D
libRbt.so/2013.1/901 2013/11/27
 24 26  0  0  0  0  0  0  0  0999 V2000
    8.2324   24.5709    4.3079 Br  0  0  0  0  0  0
    6.3138   23.9955    9.2742 O   0  0  0  0  0  0
    0.9378   28.2025    6.6041 O   0  0  0  0  0  0
    6.7527   24.4844    6.6491 N   0  0  0  0  0  0
    4.0925   24.5383    9.1489 N   0  0  0  0  0  0
    1.4467   28.5351    4.3858 N   0  0  0  0  0  0
    3.4241   27.4750    4.2972 N   0  0  0  0  0  0
    2.6182   28.4442    2.3434 N   0  0  0  0  0  0
    6.8414   25.0368    5.4373 C   0  0  0  0  0  0
    5.8163   25.9090    5.2160 C   0  0  0  0  0  0
    5.0143   25.8868    6.3886 C   0  0  0  0  0  0
    5.6575   24.9680    7.2742 C   0  0  0  0  0  0
    5.3715   24.4714    8.6273 C   0  0  0  0  0  0
    2.8739   25.0714    8.5163 C   0  0  0  0  0  0
    3.0243   26.4997    8.0249 C   0  0  0  0  0  0
    3.6599   26.5913    6.6405 C   0  0  0  0  0  0
    3.0057   27.2961    5.6243 C   0  0  0  0  0  0
    1.6882   28.0511    5.6275 C   0  0  0  0  0  0
    2.4854   28.1676    3.6264 C   0  0  0  0  0  0
    7.3839   23.8299    7.0264 H   0  0  0  0  0  0
    3.9823   24.1838   10.0607 H   0  0  0  0  0  0
    4.2705   27.1460    3.9170 H   0  0  0  0  0  0
    1.9176   28.9525    1.8743 H   0  0  0  0  0  0
    3.4179   28.1422    1.8550 H   0  0  0  0  0  0
  1  9  1  0  0  0
  2 13  2  0  0  0
  3 18  2  0  0  0
  4  9  1  0  0  0
  4 12  1  0  0  0
  4 20  1  0  0  0
  5 13  1  0  0  0
  5 14  1  0  0  0
  5 21  1  0  0  0
  6 18  1  0  0  0
  6 19  2  0  0  0
  7 17  1  0  0  0
  7 19  1  0  0  0
  7 22  1  0  0  0
  8 19  1  0  0  0
  8 23  1  0  0  0
  8 24  1  0  0  0
  9 10  2  0  0  0
 10 11  1  0  0  0
 11 12  2  0  0  0
 11 16  1  0  0  0
 12 13  1  0  0  0
 14 15  1  0  0  0
 15 16  1  0  0  0
 16 17  2  0  0  0
 17 18  1  0  0  0
M  END
>  <CHROM.0>
-101.15721111,-173.71490356,-120.07648233,-43.53985684,-61.11066012

>  <CHROM.1>
4.98329737,25.88401652,5.83191489,-0.20116575,0.49677459,-1.16947674

>  <FORMUL>
      HMD    C11 H10 Br1 N5 O2

>  <HET>
 HMD  A 400      19

>  <HETNAM>
     HMD 4-(5-AMINO-4-OXO-4H-PYRAZOL-3-YL)-2-BROMO-4,5,6,7-TETRA
   2 HMD HYDRO-3AH-PYRROLO[2,3-C]AZEPIN-8-ONE

>  <HETSYN>
     HMD HYMENIALDISINE

>  <Name>
HMD.pdb

>  <RI>
0

>  <Rbt.Current_Directory>
/home/malgorzata/Desktop/rDOCK_IFD/Wyniki/2c_CDK2/IFD

>  <Rbt.Executable>
rbdock ($Id: //depot/dev/client3/rdock/2013.1/src/exe/rbdock.cxx#4 $)

>  <Rbt.Library>
libRbt.so (2013.1, Build901 2013/11/27)

>  <Rbt.Parameter_File>
/home/malgorzata/Desktop/rDock_2013.1_src/data/scripts/hard_docking.prm

>  <Rbt.Receptor>
cavity.prm

>  <SCORE>
-12.6109

>  <SCORE.INTER>
-12.2584

>  <SCORE.INTER.CONST>
1

>  <SCORE.INTER.POLAR>
-0.400668

>  <SCORE.INTER.REPUL>
0

>  <SCORE.INTER.ROT>
0

>  <SCORE.INTER.VDW>
-16.2962

>  <SCORE.INTER.norm>
-0.64518

>  <SCORE.INTRA>
0

>  <SCORE.INTRA.DIHEDRAL>
0

>  <SCORE.INTRA.DIHEDRAL.0>
0

>  <SCORE.INTRA.POLAR>
0

>  <SCORE.INTRA.POLAR.0>
0

>  <SCORE.INTRA.REPUL>
0

>  <SCORE.INTRA.REPUL.0>
0

>  <SCORE.INTRA.VDW>
0

>  <SCORE.INTRA.VDW.0>
0

>  <SCORE.INTRA.norm>
0

>  <SCORE.RESTR>
0

>  <SCORE.RESTR.CAVITY>
0

>  <SCORE.RESTR.norm>
0

>  <SCORE.SYSTEM>
-0.35251

>  <SCORE.SYSTEM.CONST>
0

>  <SCORE.SYSTEM.DIHEDRAL>
1.63125

>  <SCORE.SYSTEM.REPUL>
0.000232712

>  <SCORE.SYSTEM.VDW>
-1.1693

>  <SCORE.SYSTEM.norm>
-0.0185531

>  <SCORE.heavy>
19

>  <SCORE.norm>
-0.663734

$$$$
HMD.pdb
  rDOCK(R)          3D
libRbt.so/2013.1/901 2013/11/27
 24 26  0  0  0  0  0  0  0  0999 V2000
   -3.0668   30.5021   10.2581 Br  0  0  0  0  0  0
   -4.0952   25.9777   12.9317 O   0  0  0  0  0  0
    1.1105   23.3546    8.4876 O   0  0  0  0  0  0
   -3.1074   27.9774   11.3993 N   0  0  0  0  0  0
   -2.2844   24.6213   12.5772 N   0  0  0  0  0  0
    1.8445   25.1521    7.2543 N   0  0  0  0  0  0
    0.4338   26.7240    8.0165 N   0  0  0  0  0  0
    2.0049   27.3502    6.4209 N   0  0  0  0  0  0
   -2.6100   28.7140   10.4035 C   0  0  0  0  0  0
   -1.7852   27.9751    9.6072 C   0  0  0  0  0  0
   -1.7588   26.6685   10.1647 C   0  0  0  0  0  0
   -2.6229   26.7205   11.3017 C   0  0  0  0  0  0
   -3.0435   25.7482   12.3199 C   0  0  0  0  0  0
   -1.0220   24.2048   11.9428 C   0  0  0  0  0  0
   -1.1078   24.1152   10.4298 C   0  0  0  0  0  0
   -0.8931   25.4587    9.7387 C   0  0  0  0  0  0
    0.0854   25.5773    8.7458 C   0  0  0  0  0  0
    1.0479   24.5528    8.1712 C   0  0  0  0  0  0
    1.4608   26.4327    7.1971 C   0  0  0  0  0  0
   -3.7276   28.2986   12.0931 H   0  0  0  0  0  0
   -2.6326   24.0198   13.2744 H   0  0  0  0  0  0
   -0.0038   27.6026    8.0922 H   0  0  0  0  0  0
    2.7555   27.1128    5.8298 H   0  0  0  0  0  0
    1.6602   28.2723    6.4326 H   0  0  0  0  0  0
  1  9  1  0  0  0
  2 13  2  0  0  0
  3 18  2  0  0  0
  4  9  1  0  0  0
  4 12  1  0  0  0
  4 20  1  0  0  0
  5 13  1  0  0  0
  5 14  1  0  0  0
  5 21  1  0  0  0
  6 18  1  0  0  0
  6 19  2  0  0  0
  7 17  1  0  0  0
  7 19  1  0  0  0
  7 22  1  0  0  0
  8 19  1  0  0  0
  8 23  1  0  0  0
  8 24  1  0  0  0
  9 10  2  0  0  0
 10 11  1  0  0  0
 11 12  2  0  0  0
 11 16  1  0  0  0
 12 13  1  0  0  0
 14 15  1  0  0  0
 15 16  1  0  0  0
 16 17  2  0  0  0
 17 18  1  0  0  0
M  END
>  <CHROM.0>
-99.33390493,-72.89254536,-118.27959698,-138.71693716,-61.11066012

>  <CHROM.1>
-1.42997621,27.06297511,9.94754678,-2.67246881,-0.78827075,2.71705793

>  <FORMUL>
      HMD    C11 H10 Br1 N5 O2

>  <HET>
 HMD  A 400      19

>  <HETNAM>
     HMD 4-(5-AMINO-4-OXO-4H-PYRAZOL-3-YL)-2-BROMO-4,5,6,7-TETRA
   2 HMD HYDRO-3AH-PYRROLO[2,3-C]AZEPIN-8-ONE

>  <HETSYN>
     HMD HYMENIALDISINE

>  <Name>
HMD.pdb

>  <RI>
0

>  <Rbt.Current_Directory>
/home/malgorzata/Desktop/rDOCK_IFD/Wyniki/2c_CDK2/IFD

>  <Rbt.Executable>
rbdock ($Id: //depot/dev/client3/rdock/2013.1/src/exe/rbdock.cxx#4 $)

>  <Rbt.Library>
libRbt.so (2013.1, Build901 2013/11/27)

>  <Rbt.Parameter_File>
/home/malgorzata/Desktop/rDock_2013.1_src/data/scripts/hard_docking.prm

>  <Rbt.Receptor>
cavity.prm

>  <SCORE>
-13.207

>  <SCORE.INTER>
-12.9757

>  <SCORE.INTER.CONST>
1

>  <SCORE.INTER.POLAR>
-0.774597

>  <SCORE.INTER.REPUL>
0.0118012

>  <SCORE.INTER.ROT>
0

>  <SCORE.INTER.VDW>
-15.8011

>  <SCORE.INTER.norm>
-0.682931

>  <SCORE.INTRA>
0

>  <SCORE.INTRA.DIHEDRAL>
0

>  <SCORE.INTRA.DIHEDRAL.0>
0

>  <SCORE.INTRA.POLAR>
0

>  <SCORE.INTRA.POLAR.0>
0

>  <SCORE.INTRA.REPUL>
0

>  <SCORE.INTRA.REPUL.0>
0

>  <SCORE.INTRA.VDW>
0

>  <SCORE.INTRA.VDW.0>
0

>  <SCORE.INTRA.norm>
0

>  <SCORE.RESTR>
0

>  <SCORE.RESTR.CAVITY>
0

>  <SCORE.RESTR.norm>
0

>  <SCORE.SYSTEM>
-0.231275

>  <SCORE.SYSTEM.CONST>
0

>  <SCORE.SYSTEM.DIHEDRAL>
1.63205

>  <SCORE.SYSTEM.REPUL>
0.127995

>  <SCORE.SYSTEM.VDW>
-1.68728

>  <SCORE.SYSTEM.norm>
-0.0121724

>  <SCORE.heavy>
19

>  <SCORE.norm>
-0.695104

$$$$
HMD.pdb
  rDOCK(R)          3D
libRbt.so/2013.1/901 2013/11/27
 24 26  0  0  0  0  0  0  0  0999 V2000
    1.3071   19.7416   14.2397 Br  0  0  0  0  0  0
   -2.9322   22.4534   16.0703 O   0  0  0  0  0  0
   -0.2034   27.6798   11.7150 O   0  0  0  0  0  0
   -0.7642   21.5086   14.7549 N   0  0  0  0  0  0
   -3.2503   24.1775   14.5970 N   0  0  0  0  0  0
    1.6212   26.7397   10.6770 N   0  0  0  0  0  0
    1.6370   24.7396   11.6973 N   0  0  0  0  0  0
    3.2727   25.1614   10.0995 N   0  0  0  0  0  0
    0.4210   21.3650   14.1582 C   0  0  0  0  0  0
    0.8050   22.5181   13.5390 C   0  0  0  0  0  0
   -0.2391   23.4559   13.7607 C   0  0  0  0  0  0
   -1.2128   22.7653   14.5463 C   0  0  0  0  0  0
   -2.5186   23.1250   15.1160 C   0  0  0  0  0  0
   -2.9025   25.0681   13.4765 C   0  0  0  0  0  0
   -1.5566   25.7502   13.6430 C   0  0  0  0  0  0
   -0.3872   24.8840   13.1837 C   0  0  0  0  0  0
    0.5196   25.3876   12.2448 C   0  0  0  0  0  0
    0.5782   26.7320   11.5411 C   0  0  0  0  0  0
    2.2157   25.5461   10.7887 C   0  0  0  0  0  0
   -1.2355   20.8109   15.2650 H   0  0  0  0  0  0
   -4.1152   24.3544   15.0326 H   0  0  0  0  0  0
    1.9485   23.8376   11.9394 H   0  0  0  0  0  0
    3.6785   25.7696    9.4401 H   0  0  0  0  0  0
    3.6558   24.2662   10.2446 H   0  0  0  0  0  0
  1  9  1  0  0  0
  2 13  2  0  0  0
  3 18  2  0  0  0
  4  9  1  0  0  0
  4 12  1  0  0  0
  4 20  1  0  0  0
  5 13  1  0  0  0
  5 14  1  0  0  0
  5 21  1  0  0  0
  6 18  1  0  0  0
  6 19  2  0  0  0
  7 17  1  0  0  0
  7 19  1  0  0  0
  7 22  1  0  0  0
  8 19  1  0  0  0
  8 23  1  0  0  0
  8 24  1  0  0  0
  9 10  2  0  0  0
 10 11  1  0  0  0
 11 12  2  0  0  0
 11 16  1  0  0  0
 12 13  1  0  0  0
 14 15  1  0  0  0
 15 16  1  0  0  0
 16 17  2  0  0  0
 17 18  1  0  0  0
M  END
>  <CHROM.0>
-99.69007741,-72.65241258,-138.23770381,103.16316328,-61.11066012

>  <CHROM.1>
0.10466659,23.26227761,13.36670610,-1.62903236,0.52378344,-0.44791177

>  <FORMUL>
      HMD    C11 H10 Br1 N5 O2

>  <HET>
 HMD  A 400      19

>  <HETNAM>
     HMD 4-(5-AMINO-4-OXO-4H-PYRAZOL-3-YL)-2-BROMO-4,5,6,7-TETRA
   2 HMD HYDRO-3AH-PYRROLO[2,3-C]AZEPIN-8-ONE

>  <HETSYN>
     HMD HYMENIALDISINE

>  <Name>
HMD.pdb

>  <RI>
0

>  <Rbt.Current_Directory>
/home/malgorzata/Desktop/rDOCK_IFD/Wyniki/2c_CDK2/IFD

>  <Rbt.Executable>
rbdock ($Id: //depot/dev/client3/rdock/2013.1/src/exe/rbdock.cxx#4 $)

>  <Rbt.Library>
libRbt.so (2013.1, Build901 2013/11/27)

>  <Rbt.Parameter_File>
/home/malgorzata/Desktop/rDock_2013.1_src/data/scripts/hard_docking.prm

>  <Rbt.Receptor>
cavity.prm

>  <SCORE>
-11.1294

>  <SCORE.INTER>
-10.4788

>  <SCORE.INTER.CONST>
1

>  <SCORE.INTER.POLAR>
-1.2375

>  <SCORE.INTER.REPUL>
0.0819049

>  <SCORE.INTER.ROT>
0

>  <SCORE.INTER.VDW>
-12.0808

>  <SCORE.INTER.norm>
-0.551514

>  <SCORE.INTRA>
0

>  <SCORE.INTRA.DIHEDRAL>
0

>  <SCORE.INTRA.DIHEDRAL.0>
0

>  <SCORE.INTRA.POLAR>
0

>  <SCORE.INTRA.POLAR.0>
0

>  <SCORE.INTRA.REPUL>
0

>  <SCORE.INTRA.REPUL.0>
0

>  <SCORE.INTRA.VDW>
0

>  <SCORE.INTRA.VDW.0>
0

>  <SCORE.INTRA.norm>
0

>  <SCORE.RESTR>
0.00727136

>  <SCORE.RESTR.CAVITY>
0.00727136

>  <SCORE.RESTR.norm>
0.000382703

>  <SCORE.SYSTEM>
-0.657909

>  <SCORE.SYSTEM.CONST>
0

>  <SCORE.SYSTEM.DIHEDRAL>
1.63078

>  <SCORE.SYSTEM.VDW>
-1.4733

>  <SCORE.SYSTEM.norm>
-0.0346268

>  <SCORE.heavy>
19

>  <SCORE.norm>
-0.585758

$$$$
