REMARK  10 active torsions:
REMARK  status: ('A' for Active; 'I' for Inactive)
REMARK    1  A    between atoms: C1_1  and  C2_2 
REMARK    2  A    between atoms: C2_2  and  O2_15 
REMARK    3  A    between atoms: C4_4  and  O4_16 
REMARK    4  A    between atoms: C5_5  and  N5_12 
REMARK    5  A    between atoms: C6_6  and  C7_7 
REMARK    6  A    between atoms: C7_7  and  C8_8 
REMARK    7  A    between atoms: C7_7  and  O7_18 
REMARK    8  A    between atoms: C8_8  and  C9_9 
REMARK    9  A    between atoms: C8_8  and  O8_19 
REMARK   10  A    between atoms: C9_9  and  O9_20 
REMARK       I    between atoms: C10_10  and  N5_12 
ROOT
HETATM    1  C2  SIA A 467      -1.975  57.442  -6.754  0.87 14.23     0.256 C 
HETATM    2  C3  SIA A 467      -0.698  56.624  -6.896  0.87 13.86     0.114 C 
HETATM    3  C4  SIA A 467      -0.793  55.563  -7.982  0.87 14.98     0.149 C 
HETATM    4  C5  SIA A 467      -1.832  55.912  -9.044  0.87 13.47     0.145 C 
HETATM    5  C6  SIA A 467      -3.208  55.999  -8.374  0.87 13.63     0.182 C 
HETATM    6  O6  SIA A 467      -3.209  56.989  -7.325  0.87 12.73    -0.336 OA
ENDROOT
BRANCH   5   7
HETATM    7  C7  SIA A 467      -4.291  56.471  -9.362  0.87 12.10     0.180 C 
BRANCH   7   8
HETATM    8  C8  SIA A 467      -5.247  55.345  -9.759  0.87 13.12     0.173 C 
BRANCH   8   9
HETATM    9  C9  SIA A 467      -4.601  53.949  -9.946  0.87 12.36     0.198 C 
BRANCH   9  10
HETATM   10  O9  SIA A 467      -5.208  52.989  -9.095  0.87 13.85    -0.398 OA
HETATM   11  HO9 SIA A 467      -5.068  53.430  -8.234  0.75 15.00     0.209 HD
ENDBRANCH   9  10
ENDBRANCH   8   9
BRANCH   8  12
HETATM   12  O8  SIA A 467      -6.131  55.236  -8.667  0.87 10.39    -0.391 OA
HETATM   13  HO8 SIA A 467      -5.590  54.841  -7.970  0.75 15.00     0.210 HD
ENDBRANCH   8  12
ENDBRANCH   7   8
BRANCH   7  14
HETATM   14  O7  SIA A 467      -5.098  57.494  -8.802  0.87 12.63    -0.390 OA
HETATM   15  HO7 SIA A 467      -5.065  56.979  -7.966  0.75 15.00     0.210 HD
ENDBRANCH   7  14
ENDBRANCH   5   7
BRANCH   4  16
HETATM   16  N5  SIA A 467      -1.779  54.812  -9.990  0.87 11.91    -0.352 N 
HETATM   17  C10 SIA A 467      -1.596  54.808 -11.295  0.87 11.99     0.214 C 
HETATM   18  C11 SIA A 467      -1.552  53.446 -11.967  0.87  9.35     0.117 C 
HETATM   19  O10 SIA A 467      -1.503  55.875 -11.905  0.87 15.13    -0.274 OA
HETATM   20  HN5 SIA A 467      -1.837  53.963  -9.487  0.75 15.00     0.163 HD
ENDBRANCH   4  16
BRANCH   3  21
HETATM   21  O4  SIA A 467       0.464  55.505  -8.614  0.87 17.69    -0.393 OA
HETATM   22  HO4 SIA A 467       0.787  56.426  -8.677  0.75 15.00     0.210 HD
ENDBRANCH   3  21
BRANCH   1  23
HETATM   23  C1  SIA A 467      -2.453  58.200  -5.513  0.87 16.36     0.238 C 
HETATM   24  O1A SIA A 467      -1.581  58.221  -4.624  0.87 14.01    -0.644 OA
HETATM   25  O1B SIA A 467      -3.551  58.690  -5.188  0.87  8.98    -0.644 OA
ENDBRANCH   1  23
BRANCH   1  26
HETATM   26  O2  SIA A 467      -2.225  58.607  -7.544  0.87 15.98    -0.357 OA
HETATM   27  HO2 SIA A 467      -2.343  59.307  -6.874  0.75 15.00     0.213 HD
ENDBRANCH   1  26
TORSDOF 10
