OHT.pdb
  rDOCK(R)          3D
libRbt.so/2013.1/901 2013/11/27
 30 32  0  0  0  0  0  0  0  0999 V2000
   69.7870   35.5352   80.8701 C   0  0  0  0  0  0
   70.0689   34.7626   79.6108 C   0  0  0  0  0  0
   68.7999   34.3754   78.8801 C   0  0  0  0  0  0
   68.4580   32.9251   78.9993 C   0  0  0  0  0  0
   69.2821   31.9410   78.4132 C   0  0  0  0  0  0
   68.9881   30.5858   78.5671 C   0  0  0  0  0  0
   67.8863   30.1746   79.2911 C   0  0  0  0  0  0
   67.0718   31.1199   79.8677 C   0  0  0  0  0  0
   67.3571   32.4822   79.7223 C   0  0  0  0  0  0
   68.0476   35.2759   78.1816 C   0  0  0  0  0  0
   67.4044   36.4929   78.8000 C   0  0  0  0  0  0
   66.4422   36.3841   79.8520 C   0  0  0  0  0  0
   65.8210   37.5283   80.3729 C   0  0  0  0  0  0
   66.1553   38.7911   79.8481 C   0  0  0  0  0  0
   65.5234   39.8862   80.3569 O   0  0  0  0  0  0
   67.1073   38.9109   78.8102 C   0  0  0  0  0  0
   67.7103   37.7650   78.3072 C   0  0  0  0  0  0
   67.7774   35.1330   76.7477 C   0  0  0  0  0  0
   67.3170   33.9349   76.2069 C   0  0  0  0  0  0
   67.0362   33.7905   74.8775 C   0  0  0  0  0  0
   67.2085   34.8680   74.0236 C   0  0  0  0  0  0
   66.9170   34.8198   72.6905 O   0  0  0  0  0  0
   67.6852   33.9895   71.8249 C   0  0  0  0  0  0
   69.0984   34.5034   71.8818 C   0  0  0  0  0  0
   69.2109   35.9135   71.6273 N   0  0  0  0  0  0
   70.4220   36.4763   72.2260 C   0  0  0  0  0  0
   69.2657   36.1483   70.1799 C   0  0  0  0  0  0
   67.6745   36.0922   74.5338 C   0  0  0  0  0  0
   67.9481   36.2102   75.8676 C   0  0  0  0  0  0
   64.8784   39.7849   81.0290 H   0  0  0  0  0  0
  1  2  1  0  0  0
  2  3  1  0  0  0
  3  4  1  0  0  0
  3 10  1  0  0  0
  4  5  2  0  0  0
  4  9  1  0  0  0
  5  6  1  0  0  0
  6  7  2  0  0  0
  7  8  1  0  0  0
  8  9  2  0  0  0
 10 11  1  0  0  0
 10 18  1  0  0  0
 11 12  2  0  0  0
 11 17  1  0  0  0
 12 13  1  0  0  0
 13 14  2  0  0  0
 14 15  1  0  0  0
 14 16  1  0  0  0
 15 30  1  0  0  0
 16 17  2  0  0  0
 18 19  2  0  0  0
 18 29  1  0  0  0
 19 20  1  0  0  0
 20 21  2  0  0  0
 21 22  1  0  0  0
 21 28  1  0  0  0
 22 23  1  0  0  0
 23 24  1  0  0  0
 24 25  1  0  0  0
 25 26  1  0  0  0
 25 27  1  0  0  0
 28 29  2  0  0  0
M  END
>  <CHROM.0>
-73.10166239,59.87553106,-87.63164979

>  <CHROM.1>
-106.23537234,-66.41325610,-60.21729988,-60.33208598,49.26243836,-0.79227521
-66.86881175,-61.90772495,-52.33301554,155.68807462,67.92670797,35.11492384
76.86861002,-2.16954473,1.31256365,-1.02147190

>  <FORMUL>
      OHT    C26 H29 N1 O2

>  <HET>
 OHT  A 600      29

>  <HETNAM>
     OHT 4-HYDROXYTAMOXIFEN

>  <Name>
OHT.pdb

>  <RI>
2.92587e+07

>  <Rbt.Current_Directory>
/home/malgorzata/Desktop/rDOCK_IFD/Wyniki/5_estrogen_receptor/IFD

>  <Rbt.Executable>
rbdock ($Id: //depot/dev/client3/rdock/2013.1/src/exe/rbdock.cxx#4 $)

>  <Rbt.Library>
libRbt.so (2013.1, Build901 2013/11/27)

>  <Rbt.Parameter_File>
/home/malgorzata/Desktop/rDock_2013.1_src/data/scripts/dock.prm

>  <Rbt.Receptor>
cavity.prm

>  <SCORE>
-56.4386

>  <SCORE.INTER>
-8.28732

>  <SCORE.INTER.CONST>
1

>  <SCORE.INTER.POLAR>
0

>  <SCORE.INTER.REPUL>
0

>  <SCORE.INTER.ROT>
9

>  <SCORE.INTER.VDW>
-22.6873

>  <SCORE.INTER.norm>
-0.285769

>  <SCORE.INTRA>
-4.43592

>  <SCORE.INTRA.DIHEDRAL>
-3.45251

>  <SCORE.INTRA.DIHEDRAL.0>
14.7815

>  <SCORE.INTRA.POLAR>
0

>  <SCORE.INTRA.POLAR.0>
0

>  <SCORE.INTRA.REPUL>
0

>  <SCORE.INTRA.REPUL.0>
0

>  <SCORE.INTRA.VDW>
-2.70966

>  <SCORE.INTRA.VDW.0>
-0.0652974

>  <SCORE.INTRA.norm>
-0.152963

>  <SCORE.RESTR>
0

>  <SCORE.RESTR.CAVITY>
0

>  <SCORE.RESTR.norm>
0

>  <SCORE.SYSTEM>
-43.7154

>  <SCORE.SYSTEM.CONST>
0

>  <SCORE.SYSTEM.DIHEDRAL>
0.806387

>  <SCORE.SYSTEM.POLAR>
-1.62167

>  <SCORE.SYSTEM.REPUL>
0.0399756

>  <SCORE.SYSTEM.VDW>
-38.8048

>  <SCORE.SYSTEM.norm>
-1.50743

>  <SCORE.heavy>
29

>  <SCORE.norm>
-1.94616

$$$$
OHT.pdb
  rDOCK(R)          3D
libRbt.so/2013.1/901 2013/11/27
 30 32  0  0  0  0  0  0  0  0999 V2000
   70.2802   36.9622   82.0165 C   0  0  0  0  0  0
   68.8404   37.3299   81.7840 C   0  0  0  0  0  0
   68.3659   36.9394   80.3996 C   0  0  0  0  0  0
   68.0084   38.1065   79.5368 C   0  0  0  0  0  0
   68.9430   38.6394   78.6238 C   0  0  0  0  0  0
   68.5914   39.6972   77.7847 C   0  0  0  0  0  0
   67.3263   40.2495   77.8280 C   0  0  0  0  0  0
   66.4037   39.7435   78.7125 C   0  0  0  0  0  0
   66.7435   38.6814   79.5579 C   0  0  0  0  0  0
   68.2773   35.6397   79.9903 C   0  0  0  0  0  0
   67.6786   34.5345   80.8254 C   0  0  0  0  0  0
   68.4580   33.7977   81.7709 C   0  0  0  0  0  0
   67.8894   32.7407   82.4962 C   0  0  0  0  0  0
   66.5375   32.4105   82.2839 C   0  0  0  0  0  0
   66.0132   31.3665   82.9859 O   0  0  0  0  0  0
   65.7566   33.1338   81.3540 C   0  0  0  0  0  0
   66.3392   34.1766   80.6447 C   0  0  0  0  0  0
   68.7778   35.1874   78.6887 C   0  0  0  0  0  0
   67.9193   34.7075   77.7024 C   0  0  0  0  0  0
   68.3648   34.3050   76.4750 C   0  0  0  0  0  0
   69.7180   34.3734   76.1851 C   0  0  0  0  0  0
   70.2415   34.0263   74.9726 O   0  0  0  0  0  0
   70.0432   34.8733   73.8446 C   0  0  0  0  0  0
   68.6212   34.6660   73.3983 C   0  0  0  0  0  0
   68.3138   33.3024   73.0639 N   0  0  0  0  0  0
   66.8969   33.0006   73.2722 C   0  0  0  0  0  0
   68.6291   33.0602   71.6514 C   0  0  0  0  0  0
   70.6145   34.8497   77.1574 C   0  0  0  0  0  0
   70.1430   35.2460   78.3775 C   0  0  0  0  0  0
   65.1469   31.0632   82.7974 H   0  0  0  0  0  0
  1  2  1  0  0  0
  2  3  1  0  0  0
  3  4  1  0  0  0
  3 10  1  0  0  0
  4  5  2  0  0  0
  4  9  1  0  0  0
  5  6  1  0  0  0
  6  7  2  0  0  0
  7  8  1  0  0  0
  8  9  2  0  0  0
 10 11  1  0  0  0
 10 18  1  0  0  0
 11 12  2  0  0  0
 11 17  1  0  0  0
 12 13  1  0  0  0
 13 14  2  0  0  0
 14 15  1  0  0  0
 14 16  1  0  0  0
 15 30  1  0  0  0
 16 17  2  0  0  0
 18 19  2  0  0  0
 18 29  1  0  0  0
 19 20  1  0  0  0
 20 21  2  0  0  0
 21 22  1  0  0  0
 21 28  1  0  0  0
 22 23  1  0  0  0
 23 24  1  0  0  0
 24 25  1  0  0  0
 25 26  1  0  0  0
 25 27  1  0  0  0
 28 29  2  0  0  0
M  END
>  <CHROM.0>
-72.48239147,59.75720701,-63.43220959

>  <CHROM.1>
-114.92225063,95.96469524,45.13029617,-87.01947986,-114.54262418,-173.21297244
72.83775524,-75.66536536,-58.05884384,152.18130369,68.23702725,35.30503352
78.32649406,-2.43473295,-1.35914681,-2.53800362

>  <FORMUL>
      OHT    C26 H29 N1 O2

>  <HET>
 OHT  A 600      29

>  <HETNAM>
     OHT 4-HYDROXYTAMOXIFEN

>  <Name>
OHT.pdb

>  <RI>
2.92587e+07

>  <Rbt.Current_Directory>
/home/malgorzata/Desktop/rDOCK_IFD/Wyniki/5_estrogen_receptor/IFD

>  <Rbt.Executable>
rbdock ($Id: //depot/dev/client3/rdock/2013.1/src/exe/rbdock.cxx#4 $)

>  <Rbt.Library>
libRbt.so (2013.1, Build901 2013/11/27)

>  <Rbt.Parameter_File>
/home/malgorzata/Desktop/rDock_2013.1_src/data/scripts/dock.prm

>  <Rbt.Receptor>
cavity.prm

>  <SCORE>
-52.5625

>  <SCORE.INTER>
-3.89873

>  <SCORE.INTER.CONST>
1

>  <SCORE.INTER.POLAR>
0

>  <SCORE.INTER.REPUL>
0

>  <SCORE.INTER.ROT>
9

>  <SCORE.INTER.VDW>
-18.2987

>  <SCORE.INTER.norm>
-0.134439

>  <SCORE.INTRA>
-5.04563

>  <SCORE.INTRA.DIHEDRAL>
-1.99143

>  <SCORE.INTRA.DIHEDRAL.0>
14.7815

>  <SCORE.INTRA.POLAR>
0

>  <SCORE.INTRA.POLAR.0>
0

>  <SCORE.INTRA.REPUL>
0

>  <SCORE.INTRA.REPUL.0>
0

>  <SCORE.INTRA.VDW>
-4.04992

>  <SCORE.INTRA.VDW.0>
-0.0652974

>  <SCORE.INTRA.norm>
-0.173987

>  <SCORE.RESTR>
0.033358

>  <SCORE.RESTR.CAVITY>
0.033358

>  <SCORE.RESTR.norm>
0.00115028

>  <SCORE.SYSTEM>
-43.6515

>  <SCORE.SYSTEM.CONST>
0

>  <SCORE.SYSTEM.DIHEDRAL>
0.805891

>  <SCORE.SYSTEM.POLAR>
-1.63229

>  <SCORE.SYSTEM.REPUL>
0.0442793

>  <SCORE.SYSTEM.VDW>
-38.726

>  <SCORE.SYSTEM.norm>
-1.50522

>  <SCORE.heavy>
29

>  <SCORE.norm>
-1.8125

$$$$
OHT.pdb
  rDOCK(R)          3D
libRbt.so/2013.1/901 2013/11/27
 30 32  0  0  0  0  0  0  0  0999 V2000
   68.8449   32.2414   78.2814 C   0  0  0  0  0  0
   68.1159   32.8969   79.4220 C   0  0  0  0  0  0
   68.3827   34.3862   79.4919 C   0  0  0  0  0  0
   69.1859   34.7962   80.6841 C   0  0  0  0  0  0
   68.6581   35.6990   81.6315 C   0  0  0  0  0  0
   69.3898   36.0424   82.7687 C   0  0  0  0  0  0
   70.6451   35.5126   82.9939 C   0  0  0  0  0  0
   71.1753   34.6327   82.0806 C   0  0  0  0  0  0
   70.4504   34.2787   80.9370 C   0  0  0  0  0  0
   67.9268   35.2617   78.5484 C   0  0  0  0  0  0
   67.3448   36.6164   78.8703 C   0  0  0  0  0  0
   67.8075   37.8072   78.2284 C   0  0  0  0  0  0
   67.2858   39.0593   78.5842 C   0  0  0  0  0  0
   66.2975   39.1331   79.5839 C   0  0  0  0  0  0
   65.8205   40.3631   79.9264 O   0  0  0  0  0  0
   65.8304   37.9622   80.2232 C   0  0  0  0  0  0
   66.3610   36.7317   79.8571 C   0  0  0  0  0  0
   67.9456   34.9558   77.1148 C   0  0  0  0  0  0
   66.7714   34.7296   76.4006 C   0  0  0  0  0  0
   66.7677   34.4677   75.0595 C   0  0  0  0  0  0
   67.9689   34.4250   74.3703 C   0  0  0  0  0  0
   68.0517   34.2065   73.0249 O   0  0  0  0  0  0
   66.8816   34.2956   72.2175 C   0  0  0  0  0  0
   67.2454   33.7272   70.8725 C   0  0  0  0  0  0
   67.5116   32.3149   70.8952 N   0  0  0  0  0  0
   66.9841   31.6458   69.7052 C   0  0  0  0  0  0
   68.9608   32.0892   70.9410 C   0  0  0  0  0  0
   69.1743   34.6455   75.0590 C   0  0  0  0  0  0
   69.1503   34.9054   76.4006 C   0  0  0  0  0  0
   65.1768   40.4444   80.6025 H   0  0  0  0  0  0
  1  2  1  0  0  0
  2  3  1  0  0  0
  3  4  1  0  0  0
  3 10  1  0  0  0
  4  5  2  0  0  0
  4  9  1  0  0  0
  5  6  1  0  0  0
  6  7  2  0  0  0
  7  8  1  0  0  0
  8  9  2  0  0  0
 10 11  1  0  0  0
 10 18  1  0  0  0
 11 12  2  0  0  0
 11 17  1  0  0  0
 12 13  1  0  0  0
 13 14  2  0  0  0
 14 15  1  0  0  0
 14 16  1  0  0  0
 15 30  1  0  0  0
 16 17  2  0  0  0
 18 19  2  0  0  0
 18 29  1  0  0  0
 19 20  1  0  0  0
 20 21  2  0  0  0
 21 22  1  0  0  0
 21 28  1  0  0  0
 22 23  1  0  0  0
 23 24  1  0  0  0
 24 25  1  0  0  0
 25 26  1  0  0  0
 25 27  1  0  0  0
 28 29  2  0  0  0
M  END
>  <CHROM.0>
-81.43204486,59.82161445,-74.78615803

>  <CHROM.1>
-111.60577868,-119.63132620,138.53316081,128.84475826,110.34623745,-178.57897998
13.51378571,-168.34614216,67.43271235,141.27110514,68.00924657,35.13363986
77.26028233,-1.69757597,-0.95505746,1.10600617

>  <FORMUL>
      OHT    C26 H29 N1 O2

>  <HET>
 OHT  A 600      29

>  <HETNAM>
     OHT 4-HYDROXYTAMOXIFEN

>  <Name>
OHT.pdb

>  <RI>
2.92587e+07

>  <Rbt.Current_Directory>
/home/malgorzata/Desktop/rDOCK_IFD/Wyniki/5_estrogen_receptor/IFD

>  <Rbt.Executable>
rbdock ($Id: //depot/dev/client3/rdock/2013.1/src/exe/rbdock.cxx#4 $)

>  <Rbt.Library>
libRbt.so (2013.1, Build901 2013/11/27)

>  <Rbt.Parameter_File>
/home/malgorzata/Desktop/rDock_2013.1_src/data/scripts/dock.prm

>  <Rbt.Receptor>
cavity.prm

>  <SCORE>
-52.4485

>  <SCORE.INTER>
-4.12513

>  <SCORE.INTER.CONST>
1

>  <SCORE.INTER.POLAR>
0

>  <SCORE.INTER.REPUL>
0

>  <SCORE.INTER.ROT>
9

>  <SCORE.INTER.VDW>
-18.5251

>  <SCORE.INTER.norm>
-0.142246

>  <SCORE.INTRA>
-4.64106

>  <SCORE.INTRA.DIHEDRAL>
-5.34171

>  <SCORE.INTRA.DIHEDRAL.0>
14.7815

>  <SCORE.INTRA.POLAR>
0

>  <SCORE.INTRA.POLAR.0>
0

>  <SCORE.INTRA.REPUL>
0

>  <SCORE.INTRA.REPUL.0>
0

>  <SCORE.INTRA.VDW>
-1.97021

>  <SCORE.INTRA.VDW.0>
-0.0652974

>  <SCORE.INTRA.norm>
-0.160037

>  <SCORE.RESTR>
0

>  <SCORE.RESTR.CAVITY>
0

>  <SCORE.RESTR.norm>
0

>  <SCORE.SYSTEM>
-43.6823

>  <SCORE.SYSTEM.CONST>
0

>  <SCORE.SYSTEM.DIHEDRAL>
0.806248

>  <SCORE.SYSTEM.POLAR>
-1.62673

>  <SCORE.SYSTEM.REPUL>
0.0419414

>  <SCORE.SYSTEM.VDW>
-38.7642

>  <SCORE.SYSTEM.norm>
-1.50629

>  <SCORE.heavy>
29

>  <SCORE.norm>
-1.80857

$$$$
OHT.pdb
  rDOCK(R)          3D
libRbt.so/2013.1/901 2013/11/27
 30 32  0  0  0  0  0  0  0  0999 V2000
   66.4388   33.1405   80.0843 C   0  0  0  0  0  0
   66.6914   33.9786   78.8611 C   0  0  0  0  0  0
   68.0079   34.7236   78.9391 C   0  0  0  0  0  0
   69.0442   34.2107   77.9918 C   0  0  0  0  0  0
   69.6314   32.9423   78.1854 C   0  0  0  0  0  0
   70.5625   32.4447   77.2732 C   0  0  0  0  0  0
   70.9341   33.1787   76.1639 C   0  0  0  0  0  0
   70.3730   34.4170   75.9605 C   0  0  0  0  0  0
   69.4364   34.9263   76.8671 C   0  0  0  0  0  0
   68.2160   35.7642   79.7984 C   0  0  0  0  0  0
   67.4794   37.0790   79.7202 C   0  0  0  0  0  0
   66.3009   37.3295   80.4900 C   0  0  0  0  0  0
   65.6061   38.5405   80.3590 C   0  0  0  0  0  0
   66.0823   39.5120   79.4583 C   0  0  0  0  0  0
   65.3787   40.6726   79.3339 O   0  0  0  0  0  0
   67.2480   39.2765   78.6944 C   0  0  0  0  0  0
   67.9209   38.0698   78.8381 C   0  0  0  0  0  0
   69.2009   35.7059   80.8829 C   0  0  0  0  0  0
   68.9203   35.0726   82.0912 C   0  0  0  0  0  0
   69.8341   34.9868   83.1036 C   0  0  0  0  0  0
   71.0917   35.5437   82.9355 C   0  0  0  0  0  0
   72.0743   35.4708   83.8809 O   0  0  0  0  0  0
   72.9616   36.5690   84.0693 C   0  0  0  0  0  0
   72.1707   37.6440   84.7642 C   0  0  0  0  0  0
   71.0878   38.1653   83.9759 N   0  0  0  0  0  0
   69.8904   38.3940   84.7859 C   0  0  0  0  0  0
   71.4865   39.4452   83.3792 C   0  0  0  0  0  0
   71.4092   36.1934   81.7301 C   0  0  0  0  0  0
   70.4770   36.2654   80.7332 C   0  0  0  0  0  0
   64.6990   40.8764   79.9459 H   0  0  0  0  0  0
  1  2  1  0  0  0
  2  3  1  0  0  0
  3  4  1  0  0  0
  3 10  1  0  0  0
  4  5  2  0  0  0
  4  9  1  0  0  0
  5  6  1  0  0  0
  6  7  2  0  0  0
  7  8  1  0  0  0
  8  9  2  0  0  0
 10 11  1  0  0  0
 10 18  1  0  0  0
 11 12  2  0  0  0
 11 17  1  0  0  0
 12 13  1  0  0  0
 13 14  2  0  0  0
 14 15  1  0  0  0
 14 16  1  0  0  0
 15 30  1  0  0  0
 16 17  2  0  0  0
 18 19  2  0  0  0
 18 29  1  0  0  0
 19 20  1  0  0  0
 20 21  2  0  0  0
 21 22  1  0  0  0
 21 28  1  0  0  0
 22 23  1  0  0  0
 23 24  1  0  0  0
 24 25  1  0  0  0
 25 26  1  0  0  0
 25 27  1  0  0  0
 28 29  2  0  0  0
M  END
>  <CHROM.0>
-68.73748109,59.73859395,-75.95797210

>  <CHROM.1>
109.92191282,-69.34423535,-64.68546404,94.31680139,-80.92199006,11.32318313
-143.91590911,73.32144835,-64.59310903,139.67908466,69.17777426,36.24968405
80.54078031,-2.10329547,-0.67412987,0.80380704

>  <FORMUL>
      OHT    C26 H29 N1 O2

>  <HET>
 OHT  A 600      29

>  <HETNAM>
     OHT 4-HYDROXYTAMOXIFEN

>  <Name>
OHT.pdb

>  <RI>
2.92587e+07

>  <Rbt.Current_Directory>
/home/malgorzata/Desktop/rDOCK_IFD/Wyniki/5_estrogen_receptor/IFD

>  <Rbt.Executable>
rbdock ($Id: //depot/dev/client3/rdock/2013.1/src/exe/rbdock.cxx#4 $)

>  <Rbt.Library>
libRbt.so (2013.1, Build901 2013/11/27)

>  <Rbt.Parameter_File>
/home/malgorzata/Desktop/rDock_2013.1_src/data/scripts/dock.prm

>  <Rbt.Receptor>
cavity.prm

>  <SCORE>
-55.0122

>  <SCORE.INTER>
-5.37417

>  <SCORE.INTER.CONST>
1

>  <SCORE.INTER.POLAR>
0

>  <SCORE.INTER.REPUL>
0

>  <SCORE.INTER.ROT>
9

>  <SCORE.INTER.VDW>
-19.7742

>  <SCORE.INTER.norm>
-0.185316

>  <SCORE.INTRA>
-5.92398

>  <SCORE.INTRA.DIHEDRAL>
-4.06678

>  <SCORE.INTRA.DIHEDRAL.0>
14.7815

>  <SCORE.INTRA.POLAR>
0

>  <SCORE.INTRA.POLAR.0>
0

>  <SCORE.INTRA.REPUL>
0

>  <SCORE.INTRA.REPUL.0>
0

>  <SCORE.INTRA.VDW>
-3.89059

>  <SCORE.INTRA.VDW.0>
-0.0652974

>  <SCORE.INTRA.norm>
-0.204275

>  <SCORE.RESTR>
0

>  <SCORE.RESTR.CAVITY>
0

>  <SCORE.RESTR.norm>
0

>  <SCORE.SYSTEM>
-43.7141

>  <SCORE.SYSTEM.CONST>
0

>  <SCORE.SYSTEM.DIHEDRAL>
0.806404

>  <SCORE.SYSTEM.POLAR>
-1.63381

>  <SCORE.SYSTEM.REPUL>
0.0449527

>  <SCORE.SYSTEM.VDW>
-38.7871

>  <SCORE.SYSTEM.norm>
-1.50738

>  <SCORE.heavy>
29

>  <SCORE.norm>
-1.89697

$$$$
OHT.pdb
  rDOCK(R)          3D
libRbt.so/2013.1/901 2013/11/27
 30 32  0  0  0  0  0  0  0  0999 V2000
   69.1066   30.5559   73.0493 C   0  0  0  0  0  0
   68.4658   31.5526   72.1229 C   0  0  0  0  0  0
   67.6970   32.6202   72.8735 C   0  0  0  0  0  0
   66.2199   32.5640   72.6507 C   0  0  0  0  0  0
   65.6397   33.1706   71.5164 C   0  0  0  0  0  0
   64.2672   33.0750   71.2848 C   0  0  0  0  0  0
   63.4444   32.3902   72.1573 C   0  0  0  0  0  0
   63.9926   31.7945   73.2681 C   0  0  0  0  0  0
   65.3681   31.8814   73.5105 C   0  0  0  0  0  0
   68.3074   33.5419   73.6751 C   0  0  0  0  0  0
   69.0667   34.7374   73.1540 C   0  0  0  0  0  0
   70.4557   34.6624   72.8234 C   0  0  0  0  0  0
   71.1496   35.8017   72.3909 C   0  0  0  0  0  0
   70.4624   37.0257   72.2846 C   0  0  0  0  0  0
   71.1631   38.1231   71.8815 O   0  0  0  0  0  0
   69.0886   37.1111   72.6059 C   0  0  0  0  0  0
   68.4199   35.9710   73.0336 C   0  0  0  0  0  0
   68.2957   33.4451   75.1379 C   0  0  0  0  0  0
   69.1832   32.6183   75.8225 C   0  0  0  0  0  0
   69.2036   32.5341   77.1862 C   0  0  0  0  0  0
   68.3159   33.2955   77.9293 C   0  0  0  0  0  0
   68.2942   33.2985   79.2946 O   0  0  0  0  0  0
   67.9416   32.1136   80.0020 C   0  0  0  0  0  0
   66.4381   32.0776   80.0541 C   0  0  0  0  0  0
   65.8599   33.1616   80.7999 N   0  0  0  0  0  0
   64.5641   33.5647   80.2517 C   0  0  0  0  0  0
   65.6569   32.7461   82.1926 C   0  0  0  0  0  0
   67.4037   34.1392   77.2720 C   0  0  0  0  0  0
   67.4040   34.2050   75.9069 C   0  0  0  0  0  0
   70.7122   38.9206   71.6846 H   0  0  0  0  0  0
  1  2  1  0  0  0
  2  3  1  0  0  0
  3  4  1  0  0  0
  3 10  1  0  0  0
  4  5  2  0  0  0
  4  9  1  0  0  0
  5  6  1  0  0  0
  6  7  2  0  0  0
  7  8  1  0  0  0
  8  9  2  0  0  0
 10 11  1  0  0  0
 10 18  1  0  0  0
 11 12  2  0  0  0
 11 17  1  0  0  0
 12 13  1  0  0  0
 13 14  2  0  0  0
 14 15  1  0  0  0
 14 16  1  0  0  0
 15 30  1  0  0  0
 16 17  2  0  0  0
 18 19  2  0  0  0
 18 29  1  0  0  0
 19 20  1  0  0  0
 20 21  2  0  0  0
 21 22  1  0  0  0
 21 28  1  0  0  0
 22 23  1  0  0  0
 23 24  1  0  0  0
 24 25  1  0  0  0
 25 26  1  0  0  0
 25 27  1  0  0  0
 28 29  2  0  0  0
M  END
>  <CHROM.0>
-23.14065717,59.79528169,-161.99904698

>  <CHROM.1>
-113.36006748,-83.35030420,76.04201561,-87.53232184,81.24476433,171.33435099
-65.10564411,-83.68230753,-64.03118415,147.35848510,67.62297279,33.58279945
75.13580790,1.23639399,-0.62547538,-1.51708407

>  <FORMUL>
      OHT    C26 H29 N1 O2

>  <HET>
 OHT  A 600      29

>  <HETNAM>
     OHT 4-HYDROXYTAMOXIFEN

>  <Name>
OHT.pdb

>  <RI>
2.92587e+07

>  <Rbt.Current_Directory>
/home/malgorzata/Desktop/rDOCK_IFD/Wyniki/5_estrogen_receptor/IFD

>  <Rbt.Executable>
rbdock ($Id: //depot/dev/client3/rdock/2013.1/src/exe/rbdock.cxx#4 $)

>  <Rbt.Library>
libRbt.so (2013.1, Build901 2013/11/27)

>  <Rbt.Parameter_File>
/home/malgorzata/Desktop/rDock_2013.1_src/data/scripts/dock.prm

>  <Rbt.Receptor>
cavity.prm

>  <SCORE>
-58.7088

>  <SCORE.INTER>
-11.3022

>  <SCORE.INTER.CONST>
1

>  <SCORE.INTER.POLAR>
-1.08062

>  <SCORE.INTER.REPUL>
0

>  <SCORE.INTER.ROT>
9

>  <SCORE.INTER.VDW>
-22.0281

>  <SCORE.INTER.norm>
-0.389732

>  <SCORE.INTRA>
-4.9502

>  <SCORE.INTRA.DIHEDRAL>
-0.787699

>  <SCORE.INTRA.DIHEDRAL.0>
14.7815

>  <SCORE.INTRA.POLAR>
0

>  <SCORE.INTRA.POLAR.0>
0

>  <SCORE.INTRA.REPUL>
0

>  <SCORE.INTRA.REPUL.0>
0

>  <SCORE.INTRA.VDW>
-4.55635

>  <SCORE.INTRA.VDW.0>
-0.0652974

>  <SCORE.INTRA.norm>
-0.170697

>  <SCORE.RESTR>
0

>  <SCORE.RESTR.CAVITY>
0

>  <SCORE.RESTR.norm>
0

>  <SCORE.SYSTEM>
-42.4564

>  <SCORE.SYSTEM.CONST>
0

>  <SCORE.SYSTEM.DIHEDRAL>
0.804746

>  <SCORE.SYSTEM.POLAR>
-1.62907

>  <SCORE.SYSTEM.REPUL>
0.0428986

>  <SCORE.SYSTEM.VDW>
-37.5345

>  <SCORE.SYSTEM.norm>
-1.46401

>  <SCORE.heavy>
29

>  <SCORE.norm>
-2.02444

$$$$
OHT.pdb
  rDOCK(R)          3D
libRbt.so/2013.1/901 2013/11/27
 30 32  0  0  0  0  0  0  0  0999 V2000
   69.7843   35.0479   71.7579 C   0  0  0  0  0  0
   69.0716   33.7799   71.3753 C   0  0  0  0  0  0
   68.2949   33.1877   72.5330 C   0  0  0  0  0  0
   66.8200   33.1271   72.2970 C   0  0  0  0  0  0
   66.1633   34.1499   71.5803 C   0  0  0  0  0  0
   64.7953   34.0672   71.3188 C   0  0  0  0  0  0
   64.0515   32.9886   71.7554 C   0  0  0  0  0  0
   64.6748   31.9838   72.4563 C   0  0  0  0  0  0
   66.0468   32.0542   72.7232 C   0  0  0  0  0  0
   68.8968   32.7539   73.6792 C   0  0  0  0  0  0
   69.6757   31.4655   73.7838 C   0  0  0  0  0  0
   69.3217   30.3072   73.0239 C   0  0  0  0  0  0
   70.0303   29.1071   73.1792 C   0  0  0  0  0  0
   71.0986   29.0532   74.0945 C   0  0  0  0  0  0
   71.7589   27.8701   74.2424 O   0  0  0  0  0  0
   71.4593   30.1928   74.8488 C   0  0  0  0  0  0
   70.7438   31.3717   74.6810 C   0  0  0  0  0  0
   68.8276   33.5024   74.9379 C   0  0  0  0  0  0
   69.9396   34.1591   75.4595 C   0  0  0  0  0  0
   69.8878   34.8819   76.6179 C   0  0  0  0  0  0
   68.6907   34.9764   77.3092 C   0  0  0  0  0  0
   68.5435   35.7075   78.4531 O   0  0  0  0  0  0
   69.5569   36.6297   78.8422 C   0  0  0  0  0  0
   69.0864   37.2685   80.1207 C   0  0  0  0  0  0
   68.9459   36.3429   81.2113 N   0  0  0  0  0  0
   70.1767   36.2414   81.9966 C   0  0  0  0  0  0
   67.8714   36.7942   82.1030 C   0  0  0  0  0  0
   67.5482   34.3242   76.8141 C   0  0  0  0  0  0
   67.6269   33.6075   75.6530 C   0  0  0  0  0  0
   71.5928   27.1635   73.6498 H   0  0  0  0  0  0
  1  2  1  0  0  0
  2  3  1  0  0  0
  3  4  1  0  0  0
  3 10  1  0  0  0
  4  5  2  0  0  0
  4  9  1  0  0  0
  5  6  1  0  0  0
  6  7  2  0  0  0
  7  8  1  0  0  0
  8  9  2  0  0  0
 10 11  1  0  0  0
 10 18  1  0  0  0
 11 12  2  0  0  0
 11 17  1  0  0  0
 12 13  1  0  0  0
 13 14  2  0  0  0
 14 15  1  0  0  0
 14 16  1  0  0  0
 15 30  1  0  0  0
 16 17  2  0  0  0
 18 19  2  0  0  0
 18 29  1  0  0  0
 19 20  1  0  0  0
 20 21  2  0  0  0
 21 22  1  0  0  0
 21 28  1  0  0  0
 22 23  1  0  0  0
 23 24  1  0  0  0
 24 25  1  0  0  0
 25 26  1  0  0  0
 25 27  1  0  0  0
 28 29  2  0  0  0
M  END
>  <CHROM.0>
-83.16367373,59.76220431,-162.44186446

>  <CHROM.1>
117.39417033,-35.99516290,-75.20300111,-33.08569288,-109.07126509,9.80296818
12.75092820,179.55494266,63.36098982,91.01142494,68.64201420,33.38406463
75.23818773,1.69025782,0.70213524,-2.19587122

>  <FORMUL>
      OHT    C26 H29 N1 O2

>  <HET>
 OHT  A 600      29

>  <HETNAM>
     OHT 4-HYDROXYTAMOXIFEN

>  <Name>
OHT.pdb

>  <RI>
2.92587e+07

>  <Rbt.Current_Directory>
/home/malgorzata/Desktop/rDOCK_IFD/Wyniki/5_estrogen_receptor/IFD

>  <Rbt.Executable>
rbdock ($Id: //depot/dev/client3/rdock/2013.1/src/exe/rbdock.cxx#4 $)

>  <Rbt.Library>
libRbt.so (2013.1, Build901 2013/11/27)

>  <Rbt.Parameter_File>
/home/malgorzata/Desktop/rDock_2013.1_src/data/scripts/dock.prm

>  <Rbt.Receptor>
cavity.prm

>  <SCORE>
-55.5476

>  <SCORE.INTER>
-7.18708

>  <SCORE.INTER.CONST>
1

>  <SCORE.INTER.POLAR>
0

>  <SCORE.INTER.REPUL>
0

>  <SCORE.INTER.ROT>
9

>  <SCORE.INTER.VDW>
-21.5871

>  <SCORE.INTER.norm>
-0.24783

>  <SCORE.INTRA>
-4.68964

>  <SCORE.INTRA.DIHEDRAL>
-7.06821

>  <SCORE.INTRA.DIHEDRAL.0>
14.7815

>  <SCORE.INTRA.POLAR>
0

>  <SCORE.INTRA.POLAR.0>
0

>  <SCORE.INTRA.REPUL>
0

>  <SCORE.INTRA.REPUL.0>
0

>  <SCORE.INTRA.VDW>
-1.15553

>  <SCORE.INTRA.VDW.0>
-0.0652974

>  <SCORE.INTRA.norm>
-0.161712

>  <SCORE.RESTR>
0

>  <SCORE.RESTR.CAVITY>
0

>  <SCORE.RESTR.norm>
0

>  <SCORE.SYSTEM>
-43.6709

>  <SCORE.SYSTEM.CONST>
0

>  <SCORE.SYSTEM.DIHEDRAL>
0.80508

>  <SCORE.SYSTEM.POLAR>
-1.63188

>  <SCORE.SYSTEM.REPUL>
0.0440983

>  <SCORE.SYSTEM.VDW>
-38.7456

>  <SCORE.SYSTEM.norm>
-1.50589

>  <SCORE.heavy>
29

>  <SCORE.norm>
-1.91544

$$$$
OHT.pdb
  rDOCK(R)          3D
libRbt.so/2013.1/901 2013/11/27
 30 32  0  0  0  0  0  0  0  0999 V2000
   70.5592   35.9141   81.2633 C   0  0  0  0  0  0
   69.1098   35.5147   81.2197 C   0  0  0  0  0  0
   68.5214   35.6448   79.8301 C   0  0  0  0  0  0
   67.8061   36.9371   79.6003 C   0  0  0  0  0  0
   66.5731   37.1997   80.2342 C   0  0  0  0  0  0
   65.9312   38.4258   80.0571 C   0  0  0  0  0  0
   66.4820   39.4084   79.2581 C   0  0  0  0  0  0
   67.6820   39.1690   78.6320 C   0  0  0  0  0  0
   68.3367   37.9440   78.8032 C   0  0  0  0  0  0
   68.6398   34.6664   78.8850 C   0  0  0  0  0  0
   69.0086   33.2367   79.1970 C   0  0  0  0  0  0
   68.0185   32.2126   79.3200 C   0  0  0  0  0  0
   68.3842   30.9028   79.6623 C   0  0  0  0  0  0
   69.7418   30.6042   79.8846 C   0  0  0  0  0  0
   70.0701   29.3288   80.2357 O   0  0  0  0  0  0
   70.7296   31.6079   79.7629 C   0  0  0  0  0  0
   70.3463   32.8994   79.4241 C   0  0  0  0  0  0
   68.4325   34.9214   77.4562 C   0  0  0  0  0  0
   67.2039   35.3527   76.9618 C   0  0  0  0  0  0
   66.9992   35.6191   75.6373 C   0  0  0  0  0  0
   68.0441   35.4614   74.7411 C   0  0  0  0  0  0
   67.9351   35.7405   73.4089 O   0  0  0  0  0  0
   68.7948   36.7073   72.8130 C   0  0  0  0  0  0
   68.0608   37.2549   71.6190 C   0  0  0  0  0  0
   67.7228   36.2570   70.6413 N   0  0  0  0  0  0
   66.3068   36.3159   70.2755 C   0  0  0  0  0  0
   68.5173   36.4710   69.4264 C   0  0  0  0  0  0
   69.2975   35.0248   75.2039 C   0  0  0  0  0  0
   69.4759   34.7651   76.5338 C   0  0  0  0  0  0
   69.4169   28.6572   80.2255 H   0  0  0  0  0  0
  1  2  1  0  0  0
  2  3  1  0  0  0
  3  4  1  0  0  0
  3 10  1  0  0  0
  4  5  2  0  0  0
  4  9  1  0  0  0
  5  6  1  0  0  0
  6  7  2  0  0  0
  7  8  1  0  0  0
  8  9  2  0  0  0
 10 11  1  0  0  0
 10 18  1  0  0  0
 11 12  2  0  0  0
 11 17  1  0  0  0
 12 13  1  0  0  0
 13 14  2  0  0  0
 14 15  1  0  0  0
 14 16  1  0  0  0
 15 30  1  0  0  0
 16 17  2  0  0  0
 18 19  2  0  0  0
 18 29  1  0  0  0
 19 20  1  0  0  0
 20 21  2  0  0  0
 21 22  1  0  0  0
 21 28  1  0  0  0
 22 23  1  0  0  0
 23 24  1  0  0  0
 24 25  1  0  0  0
 25 26  1  0  0  0
 25 27  1  0  0  0
 28 29  2  0  0  0
M  END
>  <CHROM.0>
-177.50076940,59.89401258,-86.42819409

>  <CHROM.1>
-95.70484197,-70.63947973,17.55522534,98.15429106,-62.21294021,7.16684119
121.17112243,-153.79887090,-59.69941128,129.08132619,68.38135674,35.20720057
77.14204916,1.08210896,-1.23864571,1.46933033

>  <FORMUL>
      OHT    C26 H29 N1 O2

>  <HET>
 OHT  A 600      29

>  <HETNAM>
     OHT 4-HYDROXYTAMOXIFEN

>  <Name>
OHT.pdb

>  <RI>
2.92587e+07

>  <Rbt.Current_Directory>
/home/malgorzata/Desktop/rDOCK_IFD/Wyniki/5_estrogen_receptor/IFD

>  <Rbt.Executable>
rbdock ($Id: //depot/dev/client3/rdock/2013.1/src/exe/rbdock.cxx#4 $)

>  <Rbt.Library>
libRbt.so (2013.1, Build901 2013/11/27)

>  <Rbt.Parameter_File>
/home/malgorzata/Desktop/rDock_2013.1_src/data/scripts/dock.prm

>  <Rbt.Receptor>
cavity.prm

>  <SCORE>
-53.5604

>  <SCORE.INTER>
-6.60318

>  <SCORE.INTER.CONST>
1

>  <SCORE.INTER.POLAR>
0

>  <SCORE.INTER.REPUL>
0

>  <SCORE.INTER.ROT>
9

>  <SCORE.INTER.VDW>
-21.0032

>  <SCORE.INTER.norm>
-0.227696

>  <SCORE.INTRA>
-3.42083

>  <SCORE.INTRA.DIHEDRAL>
1.19975

>  <SCORE.INTRA.DIHEDRAL.0>
14.7815

>  <SCORE.INTRA.POLAR>
0

>  <SCORE.INTRA.POLAR.0>
0

>  <SCORE.INTRA.REPUL>
0

>  <SCORE.INTRA.REPUL.0>
0

>  <SCORE.INTRA.VDW>
-4.0207

>  <SCORE.INTRA.VDW.0>
-0.0652974

>  <SCORE.INTRA.norm>
-0.11796

>  <SCORE.RESTR>
0.00178089

>  <SCORE.RESTR.CAVITY>
0.00178089

>  <SCORE.RESTR.norm>
6.14101e-05

>  <SCORE.SYSTEM>
-43.5382

>  <SCORE.SYSTEM.CONST>
0

>  <SCORE.SYSTEM.DIHEDRAL>
0.806256

>  <SCORE.SYSTEM.POLAR>
-1.61986

>  <SCORE.SYSTEM.REPUL>
0.0392999

>  <SCORE.SYSTEM.VDW>
-38.6303

>  <SCORE.SYSTEM.norm>
-1.50132

>  <SCORE.heavy>
29

>  <SCORE.norm>
-1.84691

$$$$
OHT.pdb
  rDOCK(R)          3D
libRbt.so/2013.1/901 2013/11/27
 30 32  0  0  0  0  0  0  0  0999 V2000
   64.4671   34.9589   81.7806 C   0  0  0  0  0  0
   64.8589   34.1341   80.5855 C   0  0  0  0  0  0
   66.3608   34.0743   80.3984 C   0  0  0  0  0  0
   66.9629   32.7649   80.7952 C   0  0  0  0  0  0
   67.5990   32.6149   82.0458 C   0  0  0  0  0  0
   68.1170   31.3791   82.4346 C   0  0  0  0  0  0
   68.0239   30.2767   81.6080 C   0  0  0  0  0  0
   67.4087   30.4053   80.3855 C   0  0  0  0  0  0
   66.8833   31.6389   79.9849 C   0  0  0  0  0  0
   67.0853   35.1247   79.9123 C   0  0  0  0  0  0
   67.2153   35.4480   78.4440 C   0  0  0  0  0  0
   67.0799   34.4429   77.4361 C   0  0  0  0  0  0
   67.2574   34.7608   76.0819 C   0  0  0  0  0  0
   67.5714   36.0851   75.7223 C   0  0  0  0  0  0
   67.7589   36.3651   74.4016 O   0  0  0  0  0  0
   67.7048   37.0876   76.7098 C   0  0  0  0  0  0
   67.5262   36.7517   78.0459 C   0  0  0  0  0  0
   67.8288   36.0398   80.7836 C   0  0  0  0  0  0
   67.2433   37.1926   81.3016 C   0  0  0  0  0  0
   67.9126   38.0440   82.1349 C   0  0  0  0  0  0
   69.2222   37.7619   82.4887 C   0  0  0  0  0  0
   69.9497   38.5390   83.3439 O   0  0  0  0  0  0
   70.5468   37.9572   84.4989 C   0  0  0  0  0  0
   69.4291   37.6906   85.4704 C   0  0  0  0  0  0
   68.4578   36.7471   84.9887 N   0  0  0  0  0  0
   68.9078   35.3664   85.1718 C   0  0  0  0  0  0
   67.1998   36.9185   85.7243 C   0  0  0  0  0  0
   69.8465   36.6086   81.9825 C   0  0  0  0  0  0
   69.1548   35.7735   81.1507 C   0  0  0  0  0  0
   67.5863   35.7097   73.7546 H   0  0  0  0  0  0
  1  2  1  0  0  0
  2  3  1  0  0  0
  3  4  1  0  0  0
  3 10  1  0  0  0
  4  5  2  0  0  0
  4  9  1  0  0  0
  5  6  1  0  0  0
  6  7  2  0  0  0
  7  8  1  0  0  0
  8  9  2  0  0  0
 10 11  1  0  0  0
 10 18  1  0  0  0
 11 12  2  0  0  0
 11 17  1  0  0  0
 12 13  1  0  0  0
 13 14  2  0  0  0
 14 15  1  0  0  0
 14 16  1  0  0  0
 15 30  1  0  0  0
 16 17  2  0  0  0
 18 19  2  0  0  0
 18 29  1  0  0  0
 19 20  1  0  0  0
 20 21  2  0  0  0
 21 22  1  0  0  0
 21 28  1  0  0  0
 22 23  1  0  0  0
 23 24  1  0  0  0
 24 25  1  0  0  0
 25 26  1  0  0  0
 25 27  1  0  0  0
 28 29  2  0  0  0
M  END
>  <CHROM.0>
-67.10464286,59.72784030,-162.07226102

>  <CHROM.1>
105.22836216,-100.01799107,-81.49196132,-26.15436018,-89.93509883,6.72476635
124.74420218,-73.64019252,62.80501200,81.28030512,67.78613936,35.32553505
80.93941480,2.36967638,-1.25407690,-1.09226083

>  <FORMUL>
      OHT    C26 H29 N1 O2

>  <HET>
 OHT  A 600      29

>  <HETNAM>
     OHT 4-HYDROXYTAMOXIFEN

>  <Name>
OHT.pdb

>  <RI>
2.92587e+07

>  <Rbt.Current_Directory>
/home/malgorzata/Desktop/rDOCK_IFD/Wyniki/5_estrogen_receptor/IFD

>  <Rbt.Executable>
rbdock ($Id: //depot/dev/client3/rdock/2013.1/src/exe/rbdock.cxx#4 $)

>  <Rbt.Library>
libRbt.so (2013.1, Build901 2013/11/27)

>  <Rbt.Parameter_File>
/home/malgorzata/Desktop/rDock_2013.1_src/data/scripts/dock.prm

>  <Rbt.Receptor>
cavity.prm

>  <SCORE>
-49.514

>  <SCORE.INTER>
-0.266939

>  <SCORE.INTER.CONST>
1

>  <SCORE.INTER.POLAR>
0

>  <SCORE.INTER.REPUL>
0

>  <SCORE.INTER.ROT>
9

>  <SCORE.INTER.VDW>
-14.6669

>  <SCORE.INTER.norm>
-0.0092048

>  <SCORE.INTRA>
-5.597

>  <SCORE.INTRA.DIHEDRAL>
-3.54434

>  <SCORE.INTRA.DIHEDRAL.0>
14.7815

>  <SCORE.INTRA.POLAR>
0

>  <SCORE.INTRA.POLAR.0>
0

>  <SCORE.INTRA.REPUL>
0

>  <SCORE.INTRA.REPUL.0>
0

>  <SCORE.INTRA.VDW>
-3.82483

>  <SCORE.INTRA.VDW.0>
-0.0652974

>  <SCORE.INTRA.norm>
-0.193

>  <SCORE.RESTR>
0

>  <SCORE.RESTR.CAVITY>
0

>  <SCORE.RESTR.norm>
0

>  <SCORE.SYSTEM>
-43.6501

>  <SCORE.SYSTEM.CONST>
0

>  <SCORE.SYSTEM.DIHEDRAL>
0.80508

>  <SCORE.SYSTEM.POLAR>
-1.63466

>  <SCORE.SYSTEM.REPUL>
0.0453413

>  <SCORE.SYSTEM.VDW>
-38.7215

>  <SCORE.SYSTEM.norm>
-1.50517

>  <SCORE.heavy>
29

>  <SCORE.norm>
-1.70738

$$$$
OHT.pdb
  rDOCK(R)          3D
libRbt.so/2013.1/901 2013/11/27
 30 32  0  0  0  0  0  0  0  0999 V2000
   66.6698   38.3695   80.6208 C   0  0  0  0  0  0
   67.9543   38.3602   81.4031 C   0  0  0  0  0  0
   68.1760   37.0471   82.1247 C   0  0  0  0  0  0
   67.7917   37.0841   83.5688 C   0  0  0  0  0  0
   66.9562   36.0878   84.1169 C   0  0  0  0  0  0
   66.6386   36.0966   85.4755 C   0  0  0  0  0  0
   67.1289   37.0780   86.3144 C   0  0  0  0  0  0
   67.9431   38.0572   85.7970 C   0  0  0  0  0  0
   68.2707   38.0581   84.4364 C   0  0  0  0  0  0
   68.6803   35.9406   81.5034 C   0  0  0  0  0  0
   69.4241   34.8402   82.2198 C   0  0  0  0  0  0
   68.7810   33.6226   82.6049 C   0  0  0  0  0  0
   69.4823   32.6383   83.3160 C   0  0  0  0  0  0
   70.8320   32.8610   83.6485 C   0  0  0  0  0  0
   71.4865   31.8983   84.3573 O   0  0  0  0  0  0
   71.4789   34.0595   83.2703 C   0  0  0  0  0  0
   70.7660   35.0226   82.5674 C   0  0  0  0  0  0
   68.5584   35.7236   80.0586 C   0  0  0  0  0  0
   67.3583   35.3184   79.4794 C   0  0  0  0  0  0
   67.2193   35.1352   78.1324 C   0  0  0  0  0  0
   68.3030   35.3595   77.2988 C   0  0  0  0  0  0
   68.2398   35.2355   75.9404 O   0  0  0  0  0  0
   69.2123   34.4546   75.2524 C   0  0  0  0  0  0
   68.8690   34.5352   73.7895 C   0  0  0  0  0  0
   69.7326   33.7515   72.9495 N   0  0  0  0  0  0
   69.2801   32.3628   72.8543 C   0  0  0  0  0  0
   69.7497   34.3196   71.5967 C   0  0  0  0  0  0
   69.5310   35.7664   77.8486 C   0  0  0  0  0  0
   69.6436   35.9424   79.1993 C   0  0  0  0  0  0
   72.3789   32.0286   84.6112 H   0  0  0  0  0  0
  1  2  1  0  0  0
  2  3  1  0  0  0
  3  4  1  0  0  0
  3 10  1  0  0  0
  4  5  2  0  0  0
  4  9  1  0  0  0
  5  6  1  0  0  0
  6  7  2  0  0  0
  7  8  1  0  0  0
  8  9  2  0  0  0
 10 11  1  0  0  0
 10 18  1  0  0  0
 11 12  2  0  0  0
 11 17  1  0  0  0
 12 13  1  0  0  0
 13 14  2  0  0  0
 14 15  1  0  0  0
 14 16  1  0  0  0
 15 30  1  0  0  0
 16 17  2  0  0  0
 18 19  2  0  0  0
 18 29  1  0  0  0
 19 20  1  0  0  0
 20 21  2  0  0  0
 21 22  1  0  0  0
 21 28  1  0  0  0
 22 23  1  0  0  0
 23 24  1  0  0  0
 24 25  1  0  0  0
 25 26  1  0  0  0
 25 27  1  0  0  0
 28 29  2  0  0  0
M  END
>  <CHROM.0>
177.91869695,59.80809484,-66.41914443

>  <CHROM.1>
-98.89333824,129.95211374,154.26637092,98.78579972,-75.86924700,-178.46764878
-129.65139107,-179.43893671,-177.74649492,85.57533399,68.78613435,35.30639945
80.26929801,1.67663571,-0.95207009,1.49224400

>  <FORMUL>
      OHT    C26 H29 N1 O2

>  <HET>
 OHT  A 600      29

>  <HETNAM>
     OHT 4-HYDROXYTAMOXIFEN

>  <Name>
OHT.pdb

>  <RI>
2.92587e+07

>  <Rbt.Current_Directory>
/home/malgorzata/Desktop/rDOCK_IFD/Wyniki/5_estrogen_receptor/IFD

>  <Rbt.Executable>
rbdock ($Id: //depot/dev/client3/rdock/2013.1/src/exe/rbdock.cxx#4 $)

>  <Rbt.Library>
libRbt.so (2013.1, Build901 2013/11/27)

>  <Rbt.Parameter_File>
/home/malgorzata/Desktop/rDock_2013.1_src/data/scripts/dock.prm

>  <Rbt.Receptor>
cavity.prm

>  <SCORE>
-46.8339

>  <SCORE.INTER>
1.56012

>  <SCORE.INTER.CONST>
1

>  <SCORE.INTER.POLAR>
0

>  <SCORE.INTER.REPUL>
0

>  <SCORE.INTER.ROT>
9

>  <SCORE.INTER.VDW>
-12.8399

>  <SCORE.INTER.norm>
0.0537973

>  <SCORE.INTRA>
-4.93668

>  <SCORE.INTRA.DIHEDRAL>
-4.09514

>  <SCORE.INTRA.DIHEDRAL.0>
14.7815

>  <SCORE.INTRA.POLAR>
0

>  <SCORE.INTRA.POLAR.0>
0

>  <SCORE.INTRA.REPUL>
0

>  <SCORE.INTRA.REPUL.0>
0

>  <SCORE.INTRA.VDW>
-2.88911

>  <SCORE.INTRA.VDW.0>
-0.0652974

>  <SCORE.INTRA.norm>
-0.17023

>  <SCORE.RESTR>
0.000953317

>  <SCORE.RESTR.CAVITY>
0.000953317

>  <SCORE.RESTR.norm>
3.2873e-05

>  <SCORE.SYSTEM>
-43.4583

>  <SCORE.SYSTEM.CONST>
0

>  <SCORE.SYSTEM.DIHEDRAL>
0.805847

>  <SCORE.SYSTEM.POLAR>
-1.62794

>  <SCORE.SYSTEM.REPUL>
0.0424331

>  <SCORE.SYSTEM.VDW>
-38.5384

>  <SCORE.SYSTEM.norm>
-1.49856

>  <SCORE.heavy>
29

>  <SCORE.norm>
-1.61496

$$$$
OHT.pdb
  rDOCK(R)          3D
libRbt.so/2013.1/901 2013/11/27
 30 32  0  0  0  0  0  0  0  0999 V2000
   70.1513   30.5626   78.0133 C   0  0  0  0  0  0
   68.7979   31.0485   77.5724 C   0  0  0  0  0  0
   68.3954   32.3321   78.2684 C   0  0  0  0  0  0
   67.3190   32.1487   79.2893 C   0  0  0  0  0  0
   67.3244   31.0286   80.1474 C   0  0  0  0  0  0
   66.3465   30.8843   81.1321 C   0  0  0  0  0  0
   65.3507   31.8282   81.2895 C   0  0  0  0  0  0
   65.3294   32.9250   80.4612 C   0  0  0  0  0  0
   66.3058   33.0821   79.4711 C   0  0  0  0  0  0
   68.9693   33.5374   77.9813 C   0  0  0  0  0  0
   69.4520   34.5095   79.0299 C   0  0  0  0  0  0
   70.1099   34.0687   80.2203 C   0  0  0  0  0  0
   70.5014   34.9894   81.2028 C   0  0  0  0  0  0
   70.2395   36.3584   81.0051 C   0  0  0  0  0  0
   70.6115   37.2316   81.9833 O   0  0  0  0  0  0
   69.5925   36.8060   79.8309 C   0  0  0  0  0  0
   69.2116   35.8775   78.8703 C   0  0  0  0  0  0
   69.1578   34.0134   76.6076 C   0  0  0  0  0  0
   68.1487   34.6860   75.9225 C   0  0  0  0  0  0
   68.3146   35.1585   74.6511 C   0  0  0  0  0  0
   69.5273   34.9714   74.0075 C   0  0  0  0  0  0
   69.7886   35.4432   72.7530 O   0  0  0  0  0  0
   69.0600   34.9381   71.6381 C   0  0  0  0  0  0
   67.7053   35.5918   71.6804 C   0  0  0  0  0  0
   66.8460   35.2109   70.5931 N   0  0  0  0  0  0
   66.0398   34.0358   70.9269 C   0  0  0  0  0  0
   65.9334   36.3160   70.2781 C   0  0  0  0  0  0
   70.5677   34.2944   74.6671 C   0  0  0  0  0  0
   70.3758   33.8315   75.9387 C   0  0  0  0  0  0
   71.1081   36.9285   82.7178 H   0  0  0  0  0  0
  1  2  1  0  0  0
  2  3  1  0  0  0
  3  4  1  0  0  0
  3 10  1  0  0  0
  4  5  2  0  0  0
  4  9  1  0  0  0
  5  6  1  0  0  0
  6  7  2  0  0  0
  7  8  1  0  0  0
  8  9  2  0  0  0
 10 11  1  0  0  0
 10 18  1  0  0  0
 11 12  2  0  0  0
 11 17  1  0  0  0
 12 13  1  0  0  0
 13 14  2  0  0  0
 14 15  1  0  0  0
 14 16  1  0  0  0
 15 30  1  0  0  0
 16 17  2  0  0  0
 18 19  2  0  0  0
 18 29  1  0  0  0
 19 20  1  0  0  0
 20 21  2  0  0  0
 21 22  1  0  0  0
 21 28  1  0  0  0
 22 23  1  0  0  0
 23 24  1  0  0  0
 24 25  1  0  0  0
 25 26  1  0  0  0
 25 27  1  0  0  0
 28 29  2  0  0  0
M  END
>  <CHROM.0>
179.69259875,59.91159484,-168.04503363

>  <CHROM.1>
-107.60051360,40.53149746,-133.31184531,39.15579536,85.45488481,6.42274341
-64.75534135,76.79281770,178.58493695,90.33629719,68.46868053,34.09167308
76.98557172,1.45282965,0.85339816,1.83449839

>  <FORMUL>
      OHT    C26 H29 N1 O2

>  <HET>
 OHT  A 600      29

>  <HETNAM>
     OHT 4-HYDROXYTAMOXIFEN

>  <Name>
OHT.pdb

>  <RI>
2.92587e+07

>  <Rbt.Current_Directory>
/home/malgorzata/Desktop/rDOCK_IFD/Wyniki/5_estrogen_receptor/IFD

>  <Rbt.Executable>
rbdock ($Id: //depot/dev/client3/rdock/2013.1/src/exe/rbdock.cxx#4 $)

>  <Rbt.Library>
libRbt.so (2013.1, Build901 2013/11/27)

>  <Rbt.Parameter_File>
/home/malgorzata/Desktop/rDock_2013.1_src/data/scripts/dock.prm

>  <Rbt.Receptor>
cavity.prm

>  <SCORE>
-52.2349

>  <SCORE.INTER>
-5.61521

>  <SCORE.INTER.CONST>
1

>  <SCORE.INTER.POLAR>
0

>  <SCORE.INTER.REPUL>
0

>  <SCORE.INTER.ROT>
9

>  <SCORE.INTER.VDW>
-20.0152

>  <SCORE.INTER.norm>
-0.193628

>  <SCORE.INTRA>
-3.19677

>  <SCORE.INTRA.DIHEDRAL>
-1.57816

>  <SCORE.INTRA.DIHEDRAL.0>
14.7815

>  <SCORE.INTRA.POLAR>
0

>  <SCORE.INTRA.POLAR.0>
0

>  <SCORE.INTRA.REPUL>
0

>  <SCORE.INTRA.REPUL.0>
0

>  <SCORE.INTRA.VDW>
-2.40769

>  <SCORE.INTRA.VDW.0>
-0.0652974

>  <SCORE.INTRA.norm>
-0.110233

>  <SCORE.RESTR>
0

>  <SCORE.RESTR.CAVITY>
0

>  <SCORE.RESTR.norm>
0

>  <SCORE.SYSTEM>
-43.423

>  <SCORE.SYSTEM.CONST>
0

>  <SCORE.SYSTEM.DIHEDRAL>
0.804898

>  <SCORE.SYSTEM.POLAR>
-1.61809

>  <SCORE.SYSTEM.REPUL>
0.0386563

>  <SCORE.SYSTEM.VDW>
-38.5172

>  <SCORE.SYSTEM.norm>
-1.49734

>  <SCORE.heavy>
29

>  <SCORE.norm>
-1.8012

$$$$
