OHT.pdb
  rDOCK(R)          3D
libRbt.so/2013.1/901 2013/11/27
 30 32  0  0  0  0  0  0  0  0999 V2000
   70.9242   36.1272   72.2243 C   0  0  0  0  0  0
   70.5879   34.8114   71.5778 C   0  0  0  0  0  0
   69.2103   34.3172   71.9679 C   0  0  0  0  0  0
   68.1328   34.7346   71.0196 C   0  0  0  0  0  0
   67.4748   33.7816   70.2134 C   0  0  0  0  0  0
   66.4360   34.1659   69.3650 C   0  0  0  0  0  0
   66.0289   35.4834   69.2903 C   0  0  0  0  0  0
   66.6598   36.4253   70.0677 C   0  0  0  0  0  0
   67.7017   36.0521   70.9242 C   0  0  0  0  0  0
   68.9867   33.5622   73.0835 C   0  0  0  0  0  0
   68.9089   32.0551   73.0766 C   0  0  0  0  0  0
   69.9994   31.2422   73.5176 C   0  0  0  0  0  0
   69.9202   29.8437   73.4515 C   0  0  0  0  0  0
   68.7514   29.2448   72.9447 C   0  0  0  0  0  0
   68.7061   27.8845   72.8718 O   0  0  0  0  0  0
   67.6659   30.0383   72.5087 C   0  0  0  0  0  0
   67.7649   31.4220   72.5814 C   0  0  0  0  0  0
   68.7819   34.1552   74.4085 C   0  0  0  0  0  0
   69.6742   33.9323   75.4545 C   0  0  0  0  0  0
   69.5131   34.4963   76.6886 C   0  0  0  0  0  0
   68.4277   35.3253   76.9225 C   0  0  0  0  0  0
   68.2125   35.9572   78.1137 O   0  0  0  0  0  0
   68.5612   35.3106   79.3340 C   0  0  0  0  0  0
   68.0765   36.2026   80.4447 C   0  0  0  0  0  0
   66.6583   36.4351   80.4217 N   0  0  0  0  0  0
   65.9401   35.4814   81.2683 C   0  0  0  0  0  0
   66.3744   37.7875   80.9152 C   0  0  0  0  0  0
   67.5049   35.5706   75.8910 C   0  0  0  0  0  0
   67.6891   34.9940   74.6656 C   0  0  0  0  0  0
   67.9418   27.4585   72.5367 H   0  0  0  0  0  0
  1  2  1  0  0  0
  2  3  1  0  0  0
  3  4  1  0  0  0
  3 10  1  0  0  0
  4  5  2  0  0  0
  4  9  1  0  0  0
  5  6  1  0  0  0
  6  7  2  0  0  0
  7  8  1  0  0  0
  8  9  2  0  0  0
 10 11  1  0  0  0
 10 18  1  0  0  0
 11 12  2  0  0  0
 11 17  1  0  0  0
 12 13  1  0  0  0
 13 14  2  0  0  0
 14 15  1  0  0  0
 14 16  1  0  0  0
 15 30  1  0  0  0
 16 17  2  0  0  0
 18 19  2  0  0  0
 18 29  1  0  0  0
 19 20  1  0  0  0
 20 21  2  0  0  0
 21 22  1  0  0  0
 21 28  1  0  0  0
 22 23  1  0  0  0
 23 24  1  0  0  0
 24 25  1  0  0  0
 25 26  1  0  0  0
 25 27  1  0  0  0
 28 29  2  0  0  0
M  END
>  <CHROM.0>
-68.41081280,-89.59508241,41.35550483,-98.12831792,-169.75453130

>  <CHROM.1>
92.55869331,111.81118715,-95.82502918,102.09248823,-116.03533589,-179.85023184
-35.31485595,-174.51465539,59.69289373,93.38754459,68.24322243,34.04656916
74.43594607,1.11076989,1.35104974,-1.50753536

>  <FORMUL>
      OHT    C26 H29 N1 O2

>  <HET>
 OHT  A 600      29

>  <HETNAM>
     OHT 4-HYDROXYTAMOXIFEN

>  <Name>
OHT.pdb

>  <RI>
4.16093e+07

>  <Rbt.Current_Directory>
/home/malgorzata/Desktop/rDOCK_IFD/Wyniki/5_estrogen_receptor/IFD

>  <Rbt.Executable>
rbdock ($Id: //depot/dev/client3/rdock/2013.1/src/exe/rbdock.cxx#4 $)

>  <Rbt.Library>
libRbt.so (2013.1, Build901 2013/11/27)

>  <Rbt.Parameter_File>
/home/malgorzata/Desktop/rDock_2013.1_src/data/scripts/dock.prm

>  <Rbt.Receptor>
cavity.prm

>  <SCORE>
-69.4516

>  <SCORE.INTER>
-11.4867

>  <SCORE.INTER.CONST>
1

>  <SCORE.INTER.POLAR>
0

>  <SCORE.INTER.REPUL>
0

>  <SCORE.INTER.ROT>
9

>  <SCORE.INTER.VDW>
-25.8867

>  <SCORE.INTER.norm>
-0.396093

>  <SCORE.INTRA>
-6.01106

>  <SCORE.INTRA.DIHEDRAL>
-4.26407

>  <SCORE.INTRA.DIHEDRAL.0>
14.7815

>  <SCORE.INTRA.POLAR>
0

>  <SCORE.INTRA.POLAR.0>
0

>  <SCORE.INTRA.REPUL>
0

>  <SCORE.INTRA.REPUL.0>
0

>  <SCORE.INTRA.VDW>
-3.87902

>  <SCORE.INTRA.VDW.0>
-0.0652974

>  <SCORE.INTRA.norm>
-0.207278

>  <SCORE.RESTR>
0

>  <SCORE.RESTR.CAVITY>
0

>  <SCORE.RESTR.norm>
0

>  <SCORE.SYSTEM>
-51.9539

>  <SCORE.SYSTEM.CONST>
0

>  <SCORE.SYSTEM.DIHEDRAL>
2.92877

>  <SCORE.SYSTEM.POLAR>
-2.97077

>  <SCORE.SYSTEM.VDW>
-43.3176

>  <SCORE.SYSTEM.norm>
-1.79151

>  <SCORE.heavy>
29

>  <SCORE.norm>
-2.39488

$$$$
OHT.pdb
  rDOCK(R)          3D
libRbt.so/2013.1/901 2013/11/27
 30 32  0  0  0  0  0  0  0  0999 V2000
   68.0656   32.5387   70.2219 C   0  0  0  0  0  0
   67.6006   33.6172   71.1616 C   0  0  0  0  0  0
   68.5884   33.8652   72.2826 C   0  0  0  0  0  0
   69.3542   35.1405   72.1360 C   0  0  0  0  0  0
   68.7082   36.3875   72.2725 C   0  0  0  0  0  0
   69.4337   37.5760   72.1840 C   0  0  0  0  0  0
   70.7961   37.5627   71.9583 C   0  0  0  0  0  0
   71.4414   36.3567   71.8214 C   0  0  0  0  0  0
   70.7252   35.1577   71.9102 C   0  0  0  0  0  0
   68.7547   32.9975   73.3238 C   0  0  0  0  0  0
   68.4920   31.5143   73.2320 C   0  0  0  0  0  0
   67.1682   30.9780   73.2972 C   0  0  0  0  0  0
   66.9564   29.5922   73.2621 C   0  0  0  0  0  0
   68.0645   28.7299   73.1613 C   0  0  0  0  0  0
   67.8345   27.3866   73.1492 O   0  0  0  0  0  0
   69.3775   29.2489   73.0931 C   0  0  0  0  0  0
   69.5659   30.6248   73.1307 C   0  0  0  0  0  0
   69.1947   33.4352   74.6520 C   0  0  0  0  0  0
   70.3419   32.9179   75.2488 C   0  0  0  0  0  0
   70.7810   33.3316   76.4749 C   0  0  0  0  0  0
   70.0702   34.3034   77.1609 C   0  0  0  0  0  0
   70.4592   34.7988   78.3724 O   0  0  0  0  0  0
   69.5139   34.9063   79.4325 C   0  0  0  0  0  0
   70.2279   35.5735   80.5767 C   0  0  0  0  0  0
   69.4028   35.7693   81.7371 N   0  0  0  0  0  0
   69.4472   34.6133   82.6337 C   0  0  0  0  0  0
   69.8732   36.9429   82.4819 C   0  0  0  0  0  0
   68.9057   34.8461   76.5906 C   0  0  0  0  0  0
   68.4881   34.4147   75.3628 C   0  0  0  0  0  0
   66.9561   27.0620   73.1167 H   0  0  0  0  0  0
  1  2  1  0  0  0
  2  3  1  0  0  0
  3  4  1  0  0  0
  3 10  1  0  0  0
  4  5  2  0  0  0
  4  9  1  0  0  0
  5  6  1  0  0  0
  6  7  2  0  0  0
  7  8  1  0  0  0
  8  9  2  0  0  0
 10 11  1  0  0  0
 10 18  1  0  0  0
 11 12  2  0  0  0
 11 17  1  0  0  0
 12 13  1  0  0  0
 13 14  2  0  0  0
 14 15  1  0  0  0
 14 16  1  0  0  0
 15 30  1  0  0  0
 16 17  2  0  0  0
 18 19  2  0  0  0
 18 29  1  0  0  0
 19 20  1  0  0  0
 20 21  2  0  0  0
 21 22  1  0  0  0
 21 28  1  0  0  0
 22 23  1  0  0  0
 23 24  1  0  0  0
 24 25  1  0  0  0
 25 26  1  0  0  0
 25 27  1  0  0  0
 28 29  2  0  0  0
M  END
>  <CHROM.0>
-157.85118871,141.93874799,41.44190416,-125.54992392,7.20517024

>  <CHROM.1>
106.46665081,68.64898047,27.51395554,-79.12463309,-122.05961643,6.38506619
-132.36307446,-175.90953297,179.55362195,88.75358336,69.22209941,33.61272060
75.01588981,-2.15060156,1.31198951,1.71953130

>  <FORMUL>
      OHT    C26 H29 N1 O2

>  <HET>
 OHT  A 600      29

>  <HETNAM>
     OHT 4-HYDROXYTAMOXIFEN

>  <Name>
OHT.pdb

>  <RI>
4.16093e+07

>  <Rbt.Current_Directory>
/home/malgorzata/Desktop/rDOCK_IFD/Wyniki/5_estrogen_receptor/IFD

>  <Rbt.Executable>
rbdock ($Id: //depot/dev/client3/rdock/2013.1/src/exe/rbdock.cxx#4 $)

>  <Rbt.Library>
libRbt.so (2013.1, Build901 2013/11/27)

>  <Rbt.Parameter_File>
/home/malgorzata/Desktop/rDock_2013.1_src/data/scripts/dock.prm

>  <Rbt.Receptor>
cavity.prm

>  <SCORE>
-71.2483

>  <SCORE.INTER>
-13.3932

>  <SCORE.INTER.CONST>
1

>  <SCORE.INTER.POLAR>
0

>  <SCORE.INTER.REPUL>
0.0193376

>  <SCORE.INTER.ROT>
9

>  <SCORE.INTER.VDW>
-27.8899

>  <SCORE.INTER.norm>
-0.461835

>  <SCORE.INTRA>
-4.95264

>  <SCORE.INTRA.DIHEDRAL>
-4.24329

>  <SCORE.INTRA.DIHEDRAL.0>
14.7815

>  <SCORE.INTRA.POLAR>
0

>  <SCORE.INTRA.POLAR.0>
0

>  <SCORE.INTRA.REPUL>
0

>  <SCORE.INTRA.REPUL.0>
0

>  <SCORE.INTRA.VDW>
-2.831

>  <SCORE.INTRA.VDW.0>
-0.0652974

>  <SCORE.INTRA.norm>
-0.170781

>  <SCORE.RESTR>
0

>  <SCORE.RESTR.CAVITY>
0

>  <SCORE.RESTR.norm>
0

>  <SCORE.SYSTEM>
-52.9024

>  <SCORE.SYSTEM.CONST>
0

>  <SCORE.SYSTEM.DIHEDRAL>
2.8531

>  <SCORE.SYSTEM.POLAR>
-2.92422

>  <SCORE.SYSTEM.VDW>
-44.3866

>  <SCORE.SYSTEM.norm>
-1.82422

>  <SCORE.heavy>
29

>  <SCORE.norm>
-2.45684

$$$$
OHT.pdb
  rDOCK(R)          3D
libRbt.so/2013.1/901 2013/11/27
 30 32  0  0  0  0  0  0  0  0999 V2000
   67.2872   32.0953   69.9236 C   0  0  0  0  0  0
   68.7439   32.1446   70.2951 C   0  0  0  0  0  0
   68.9808   32.9044   71.5838 C   0  0  0  0  0  0
   69.5363   34.2768   71.3773 C   0  0  0  0  0  0
   68.9917   35.1335   70.3973 C   0  0  0  0  0  0
   69.4791   36.4313   70.2394 C   0  0  0  0  0  0
   70.5045   36.9075   71.0325 C   0  0  0  0  0  0
   71.0477   36.0859   71.9913 C   0  0  0  0  0  0
   70.5662   34.7829   72.1608 C   0  0  0  0  0  0
   68.7088   32.3745   72.8125 C   0  0  0  0  0  0
   68.1957   30.9718   73.0280 C   0  0  0  0  0  0
   69.0506   29.8312   72.9164 C   0  0  0  0  0  0
   68.5366   28.5355   73.0699 C   0  0  0  0  0  0
   67.1645   28.3675   73.3365 C   0  0  0  0  0  0
   66.6850   27.0979   73.4616 O   0  0  0  0  0  0
   66.3105   29.4879   73.4519 C   0  0  0  0  0  0
   66.8393   30.7630   73.2951 C   0  0  0  0  0  0
   68.8768   33.1360   74.0540 C   0  0  0  0  0  0
   67.9278   34.0641   74.4759 C   0  0  0  0  0  0
   68.0553   34.7648   75.6421 C   0  0  0  0  0  0
   69.1633   34.5529   76.4467 C   0  0  0  0  0  0
   69.3496   35.1830   77.6437 O   0  0  0  0  0  0
   68.2396   35.7651   78.3204 C   0  0  0  0  0  0
   68.8062   36.5683   79.4598 C   0  0  0  0  0  0
   67.8119   37.2798   80.2155 N   0  0  0  0  0  0
   68.1885   37.4023   81.6245 C   0  0  0  0  0  0
   67.6521   38.6312   79.6666 C   0  0  0  0  0  0
   70.1430   33.6257   76.0513 C   0  0  0  0  0  0
   69.9915   32.9379   74.8800 C   0  0  0  0  0  0
   67.2738   26.3696   73.4317 H   0  0  0  0  0  0
  1  2  1  0  0  0
  2  3  1  0  0  0
  3  4  1  0  0  0
  3 10  1  0  0  0
  4  5  2  0  0  0
  4  9  1  0  0  0
  5  6  1  0  0  0
  6  7  2  0  0  0
  7  8  1  0  0  0
  8  9  2  0  0  0
 10 11  1  0  0  0
 10 18  1  0  0  0
 11 12  2  0  0  0
 11 17  1  0  0  0
 12 13  1  0  0  0
 13 14  2  0  0  0
 14 15  1  0  0  0
 14 16  1  0  0  0
 15 30  1  0  0  0
 16 17  2  0  0  0
 18 19  2  0  0  0
 18 29  1  0  0  0
 19 20  1  0  0  0
 20 21  2  0  0  0
 21 22  1  0  0  0
 21 28  1  0  0  0
 22 23  1  0  0  0
 23 24  1  0  0  0
 24 25  1  0  0  0
 25 26  1  0  0  0
 25 27  1  0  0  0
 28 29  2  0  0  0
M  END
>  <CHROM.0>
-144.46081954,168.55821317,41.40898578,-70.94800882,11.15439946

>  <CHROM.1>
-103.92926734,45.60014907,2.31716643,75.78480727,79.38031284,4.38991963,19.70408588
-170.51161167,177.22839617,148.05146736,68.61988428,33.54096787,74.33507202
-1.68165040,1.22481139,0.97522325

>  <FORMUL>
      OHT    C26 H29 N1 O2

>  <HET>
 OHT  A 600      29

>  <HETNAM>
     OHT 4-HYDROXYTAMOXIFEN

>  <Name>
OHT.pdb

>  <RI>
4.16093e+07

>  <Rbt.Current_Directory>
/home/malgorzata/Desktop/rDOCK_IFD/Wyniki/5_estrogen_receptor/IFD

>  <Rbt.Executable>
rbdock ($Id: //depot/dev/client3/rdock/2013.1/src/exe/rbdock.cxx#4 $)

>  <Rbt.Library>
libRbt.so (2013.1, Build901 2013/11/27)

>  <Rbt.Parameter_File>
/home/malgorzata/Desktop/rDock_2013.1_src/data/scripts/dock.prm

>  <Rbt.Receptor>
cavity.prm

>  <SCORE>
-71.8691

>  <SCORE.INTER>
-14.1344

>  <SCORE.INTER.CONST>
1

>  <SCORE.INTER.POLAR>
0

>  <SCORE.INTER.REPUL>
0

>  <SCORE.INTER.ROT>
9

>  <SCORE.INTER.VDW>
-28.5344

>  <SCORE.INTER.norm>
-0.487393

>  <SCORE.INTRA>
-4.96864

>  <SCORE.INTRA.DIHEDRAL>
-5.41494

>  <SCORE.INTRA.DIHEDRAL.0>
14.7815

>  <SCORE.INTRA.POLAR>
0

>  <SCORE.INTRA.POLAR.0>
0

>  <SCORE.INTRA.REPUL>
0

>  <SCORE.INTRA.REPUL.0>
0

>  <SCORE.INTRA.VDW>
-2.26117

>  <SCORE.INTRA.VDW.0>
-0.0652974

>  <SCORE.INTRA.norm>
-0.171333

>  <SCORE.RESTR>
0

>  <SCORE.RESTR.CAVITY>
0

>  <SCORE.RESTR.norm>
0

>  <SCORE.SYSTEM>
-52.766

>  <SCORE.SYSTEM.CONST>
0

>  <SCORE.SYSTEM.DIHEDRAL>
2.95189

>  <SCORE.SYSTEM.POLAR>
-2.92228

>  <SCORE.SYSTEM.VDW>
-44.3062

>  <SCORE.SYSTEM.norm>
-1.81952

>  <SCORE.heavy>
29

>  <SCORE.norm>
-2.47824

$$$$
OHT.pdb
  rDOCK(R)          3D
libRbt.so/2013.1/901 2013/11/27
 30 32  0  0  0  0  0  0  0  0999 V2000
   67.3492   31.4546   69.1972 C   0  0  0  0  0  0
   66.4842   32.3532   70.0377 C   0  0  0  0  0  0
   67.2422   32.9490   71.2058 C   0  0  0  0  0  0
   67.8639   34.2745   70.9040 C   0  0  0  0  0  0
   69.2663   34.4106   70.8267 C   0  0  0  0  0  0
   69.8429   35.6375   70.4966 C   0  0  0  0  0  0
   69.0597   36.7460   70.2412 C   0  0  0  0  0  0
   67.6918   36.6316   70.3134 C   0  0  0  0  0  0
   67.1013   35.4060   70.6415 C   0  0  0  0  0  0
   67.3413   32.3241   72.4159 C   0  0  0  0  0  0
   66.9945   30.8731   72.6434 C   0  0  0  0  0  0
   65.7780   30.4805   73.2839 C   0  0  0  0  0  0
   65.5048   29.1272   73.5299 C   0  0  0  0  0  0
   66.4437   28.1542   73.1382 C   0  0  0  0  0  0
   66.1646   26.8474   73.4062 O   0  0  0  0  0  0
   67.6482   28.5305   72.5015 C   0  0  0  0  0  0
   67.9005   29.8765   72.2681 C   0  0  0  0  0  0
   67.7847   33.0193   73.6281 C   0  0  0  0  0  0
   69.0007   32.7206   74.2381 C   0  0  0  0  0  0
   69.4417   33.3750   75.3537 C   0  0  0  0  0  0
   68.6622   34.3773   75.9086 C   0  0  0  0  0  0
   69.0445   35.1046   76.9991 O   0  0  0  0  0  0
   69.9367   34.5377   77.9538 C   0  0  0  0  0  0
   69.7820   35.3432   79.2154 C   0  0  0  0  0  0
   70.5161   34.8142   80.3321 N   0  0  0  0  0  0
   70.7213   35.8239   81.3717 C   0  0  0  0  0  0
   69.7727   33.6955   80.9229 C   0  0  0  0  0  0
   67.4275   34.7037   75.3213 C   0  0  0  0  0  0
   67.0095   34.0338   74.2058 C   0  0  0  0  0  0
   66.7951   26.1834   73.2074 H   0  0  0  0  0  0
  1  2  1  0  0  0
  2  3  1  0  0  0
  3  4  1  0  0  0
  3 10  1  0  0  0
  4  5  2  0  0  0
  4  9  1  0  0  0
  5  6  1  0  0  0
  6  7  2  0  0  0
  7  8  1  0  0  0
  8  9  2  0  0  0
 10 11  1  0  0  0
 10 18  1  0  0  0
 11 12  2  0  0  0
 11 17  1  0  0  0
 12 13  1  0  0  0
 13 14  2  0  0  0
 14 15  1  0  0  0
 14 16  1  0  0  0
 15 30  1  0  0  0
 16 17  2  0  0  0
 18 19  2  0  0  0
 18 29  1  0  0  0
 19 20  1  0  0  0
 20 21  2  0  0  0
 21 22  1  0  0  0
 21 28  1  0  0  0
 22 23  1  0  0  0
 23 24  1  0  0  0
 24 25  1  0  0  0
 25 26  1  0  0  0
 25 27  1  0  0  0
 28 29  2  0  0  0
M  END
>  <CHROM.0>
-163.72047245,-98.81243219,41.54247943,118.63053146,6.42011865

>  <CHROM.1>
91.76204633,-111.47907077,14.29066758,-103.72128543,-111.88926937,-176.03863885
-27.22340132,-160.65867288,173.87567061,160.44715241,68.12142821,33.00658932
73.98787346,-2.55331092,1.19932426,2.12242971

>  <FORMUL>
      OHT    C26 H29 N1 O2

>  <HET>
 OHT  A 600      29

>  <HETNAM>
     OHT 4-HYDROXYTAMOXIFEN

>  <Name>
OHT.pdb

>  <RI>
4.16093e+07

>  <Rbt.Current_Directory>
/home/malgorzata/Desktop/rDOCK_IFD/Wyniki/5_estrogen_receptor/IFD

>  <Rbt.Executable>
rbdock ($Id: //depot/dev/client3/rdock/2013.1/src/exe/rbdock.cxx#4 $)

>  <Rbt.Library>
libRbt.so (2013.1, Build901 2013/11/27)

>  <Rbt.Parameter_File>
/home/malgorzata/Desktop/rDock_2013.1_src/data/scripts/dock.prm

>  <Rbt.Receptor>
cavity.prm

>  <SCORE>
-69.0102

>  <SCORE.INTER>
-11.7368

>  <SCORE.INTER.CONST>
1

>  <SCORE.INTER.POLAR>
0

>  <SCORE.INTER.REPUL>
0

>  <SCORE.INTER.ROT>
9

>  <SCORE.INTER.VDW>
-26.1368

>  <SCORE.INTER.norm>
-0.404719

>  <SCORE.INTRA>
-4.74754

>  <SCORE.INTRA.DIHEDRAL>
-3.77207

>  <SCORE.INTRA.DIHEDRAL.0>
14.7815

>  <SCORE.INTRA.POLAR>
0

>  <SCORE.INTRA.POLAR.0>
0

>  <SCORE.INTRA.REPUL>
0

>  <SCORE.INTRA.REPUL.0>
0

>  <SCORE.INTRA.VDW>
-2.8615

>  <SCORE.INTRA.VDW.0>
-0.0652974

>  <SCORE.INTRA.norm>
-0.163708

>  <SCORE.RESTR>
0

>  <SCORE.RESTR.CAVITY>
0

>  <SCORE.RESTR.norm>
0

>  <SCORE.SYSTEM>
-52.5258

>  <SCORE.SYSTEM.CONST>
0

>  <SCORE.SYSTEM.DIHEDRAL>
2.81945

>  <SCORE.SYSTEM.POLAR>
-2.9298

>  <SCORE.SYSTEM.VDW>
-43.9742

>  <SCORE.SYSTEM.norm>
-1.81124

>  <SCORE.heavy>
29

>  <SCORE.norm>
-2.37966

$$$$
OHT.pdb
  rDOCK(R)          3D
libRbt.so/2013.1/901 2013/11/27
 30 32  0  0  0  0  0  0  0  0999 V2000
   65.9889   33.4944   72.0660 C   0  0  0  0  0  0
   67.1325   32.7608   71.4208 C   0  0  0  0  0  0
   68.2509   32.4690   72.3996 C   0  0  0  0  0  0
   68.3994   31.0176   72.7252 C   0  0  0  0  0  0
   69.6672   30.3991   72.6937 C   0  0  0  0  0  0
   69.8108   29.0566   73.0455 C   0  0  0  0  0  0
   68.7201   28.3011   73.4287 C   0  0  0  0  0  0
   67.4773   28.8872   73.4637 C   0  0  0  0  0  0
   67.3206   30.2334   73.1152 C   0  0  0  0  0  0
   69.0421   33.4484   72.9281 C   0  0  0  0  0  0
   69.6067   34.5961   72.1273 C   0  0  0  0  0  0
   70.3667   35.6407   72.7401 C   0  0  0  0  0  0
   70.8352   36.7228   71.9811 C   0  0  0  0  0  0
   70.5491   36.7711   70.6036 C   0  0  0  0  0  0
   70.9980   37.8429   69.8913 O   0  0  0  0  0  0
   69.8013   35.7426   69.9865 C   0  0  0  0  0  0
   69.3453   34.6800   70.7564 C   0  0  0  0  0  0
   69.4358   33.4673   74.3402 C   0  0  0  0  0  0
   70.3893   32.5862   74.8446 C   0  0  0  0  0  0
   70.7868   32.6055   76.1518 C   0  0  0  0  0  0
   70.2314   33.5323   77.0193 C   0  0  0  0  0  0
   70.5984   33.6435   78.3298 O   0  0  0  0  0  0
   69.9241   32.8778   79.3237 C   0  0  0  0  0  0
   68.5920   33.5418   79.5451 C   0  0  0  0  0  0
   67.7554   32.8567   80.4919 N   0  0  0  0  0  0
   68.1057   33.1998   81.8709 C   0  0  0  0  0  0
   66.3541   33.2315   80.2702 C   0  0  0  0  0  0
   69.2638   34.4355   76.5459 C   0  0  0  0  0  0
   68.8836   34.3951   75.2338 C   0  0  0  0  0  0
   71.3763   38.5758   70.3360 H   0  0  0  0  0  0
  1  2  1  0  0  0
  2  3  1  0  0  0
  3  4  1  0  0  0
  3 10  1  0  0  0
  4  5  2  0  0  0
  4  9  1  0  0  0
  5  6  1  0  0  0
  6  7  2  0  0  0
  7  8  1  0  0  0
  8  9  2  0  0  0
 10 11  1  0  0  0
 10 18  1  0  0  0
 11 12  2  0  0  0
 11 17  1  0  0  0
 12 13  1  0  0  0
 13 14  2  0  0  0
 14 15  1  0  0  0
 14 16  1  0  0  0
 15 30  1  0  0  0
 16 17  2  0  0  0
 18 19  2  0  0  0
 18 29  1  0  0  0
 19 20  1  0  0  0
 20 21  2  0  0  0
 21 22  1  0  0  0
 21 28  1  0  0  0
 22 23  1  0  0  0
 23 24  1  0  0  0
 24 25  1  0  0  0
 25 26  1  0  0  0
 25 27  1  0  0  0
 28 29  2  0  0  0
M  END
>  <CHROM.0>
-156.14689224,138.67854744,41.55345782,-96.74679107,4.00575444

>  <CHROM.1>
111.00488064,132.16214139,-42.70600332,176.30612177,73.91099383,-8.51110278
-89.52309980,-75.88294023,177.68761189,82.00201631,69.07275874,33.23167668
74.54738552,1.19050826,-1.24792752,-1.71741930

>  <FORMUL>
      OHT    C26 H29 N1 O2

>  <HET>
 OHT  A 600      29

>  <HETNAM>
     OHT 4-HYDROXYTAMOXIFEN

>  <Name>
OHT.pdb

>  <RI>
4.16093e+07

>  <Rbt.Current_Directory>
/home/malgorzata/Desktop/rDOCK_IFD/Wyniki/5_estrogen_receptor/IFD

>  <Rbt.Executable>
rbdock ($Id: //depot/dev/client3/rdock/2013.1/src/exe/rbdock.cxx#4 $)

>  <Rbt.Library>
libRbt.so (2013.1, Build901 2013/11/27)

>  <Rbt.Parameter_File>
/home/malgorzata/Desktop/rDock_2013.1_src/data/scripts/dock.prm

>  <Rbt.Receptor>
cavity.prm

>  <SCORE>
-68.7903

>  <SCORE.INTER>
-13.6946

>  <SCORE.INTER.CONST>
1

>  <SCORE.INTER.POLAR>
0

>  <SCORE.INTER.REPUL>
0

>  <SCORE.INTER.ROT>
9

>  <SCORE.INTER.VDW>
-28.0946

>  <SCORE.INTER.norm>
-0.472228

>  <SCORE.INTRA>
-2.15124

>  <SCORE.INTRA.DIHEDRAL>
-1.78943

>  <SCORE.INTRA.DIHEDRAL.0>
14.7815

>  <SCORE.INTRA.POLAR>
0

>  <SCORE.INTRA.POLAR.0>
0

>  <SCORE.INTRA.REPUL>
0

>  <SCORE.INTRA.REPUL.0>
0

>  <SCORE.INTRA.VDW>
-1.25652

>  <SCORE.INTRA.VDW.0>
-0.0652974

>  <SCORE.INTRA.norm>
-0.0741805

>  <SCORE.RESTR>
0

>  <SCORE.RESTR.CAVITY>
0

>  <SCORE.RESTR.norm>
0

>  <SCORE.SYSTEM>
-52.9445

>  <SCORE.SYSTEM.CONST>
0

>  <SCORE.SYSTEM.DIHEDRAL>
2.76899

>  <SCORE.SYSTEM.POLAR>
-2.93038

>  <SCORE.SYSTEM.VDW>
-44.3657

>  <SCORE.SYSTEM.norm>
-1.82567

>  <SCORE.heavy>
29

>  <SCORE.norm>
-2.37208

$$$$
OHT.pdb
  rDOCK(R)          3D
libRbt.so/2013.1/901 2013/11/27
 30 32  0  0  0  0  0  0  0  0999 V2000
   67.0494   32.6892   80.8862 C   0  0  0  0  0  0
   67.5743   33.8621   81.6678 C   0  0  0  0  0  0
   68.6783   34.5929   80.9321 C   0  0  0  0  0  0
   70.0188   34.4639   81.5808 C   0  0  0  0  0  0
   70.6484   35.5855   82.1610 C   0  0  0  0  0  0
   71.8769   35.4533   82.8090 C   0  0  0  0  0  0
   72.5071   34.2275   82.8961 C   0  0  0  0  0  0
   71.9087   33.1245   82.3351 C   0  0  0  0  0  0
   70.6755   33.2437   81.6843 C   0  0  0  0  0  0
   68.4570   35.2999   79.7850 C   0  0  0  0  0  0
   67.7880   36.6521   79.7470 C   0  0  0  0  0  0
   68.3658   37.7594   79.0510 C   0  0  0  0  0  0
   67.7495   39.0188   79.0756 C   0  0  0  0  0  0
   66.5507   39.1833   79.7951 C   0  0  0  0  0  0
   65.9814   40.4214   79.8206 O   0  0  0  0  0  0
   65.9689   38.0950   80.4843 C   0  0  0  0  0  0
   66.5960   36.8560   80.4485 C   0  0  0  0  0  0
   68.8396   34.7962   78.4624 C   0  0  0  0  0  0
   67.9232   34.7205   77.4163 C   0  0  0  0  0  0
   68.2675   34.2772   76.1705 C   0  0  0  0  0  0
   69.5739   33.8875   75.9228 C   0  0  0  0  0  0
   70.0097   33.4676   74.6987 O   0  0  0  0  0  0
   69.2118   33.7012   73.5421 C   0  0  0  0  0  0
   69.4455   35.1330   73.1429 C   0  0  0  0  0  0
   70.5015   35.2998   72.1823 N   0  0  0  0  0  0
   70.0400   35.0329   70.8192 C   0  0  0  0  0  0
   70.9989   36.6793   72.2339 C   0  0  0  0  0  0
   70.5254   33.9476   76.9557 C   0  0  0  0  0  0
   70.1550   34.3948   78.1930 C   0  0  0  0  0  0
   65.1688   40.5543   80.2679 H   0  0  0  0  0  0
  1  2  1  0  0  0
  2  3  1  0  0  0
  3  4  1  0  0  0
  3 10  1  0  0  0
  4  5  2  0  0  0
  4  9  1  0  0  0
  5  6  1  0  0  0
  6  7  2  0  0  0
  7  8  1  0  0  0
  8  9  2  0  0  0
 10 11  1  0  0  0
 10 18  1  0  0  0
 11 12  2  0  0  0
 11 17  1  0  0  0
 12 13  1  0  0  0
 13 14  2  0  0  0
 14 15  1  0  0  0
 14 16  1  0  0  0
 15 30  1  0  0  0
 16 17  2  0  0  0
 18 19  2  0  0  0
 18 29  1  0  0  0
 19 20  1  0  0  0
 20 21  2  0  0  0
 21 22  1  0  0  0
 21 28  1  0  0  0
 22 23  1  0  0  0
 23 24  1  0  0  0
 24 25  1  0  0  0
 25 26  1  0  0  0
 25 27  1  0  0  0
 28 29  2  0  0  0
M  END
>  <CHROM.0>
-69.27009127,119.31141274,41.82863806,-68.66622453,-170.29040467

>  <CHROM.1>
-112.13203055,-112.72318458,75.15406917,129.69777996,126.54277373,177.99045141
14.47601685,79.80938256,92.33508857,81.62917325,69.08442334,35.38868061,78.32995733
-1.72505561,0.88967692,-1.52230517

>  <FORMUL>
      OHT    C26 H29 N1 O2

>  <HET>
 OHT  A 600      29

>  <HETNAM>
     OHT 4-HYDROXYTAMOXIFEN

>  <Name>
OHT.pdb

>  <RI>
4.16093e+07

>  <Rbt.Current_Directory>
/home/malgorzata/Desktop/rDOCK_IFD/Wyniki/5_estrogen_receptor/IFD

>  <Rbt.Executable>
rbdock ($Id: //depot/dev/client3/rdock/2013.1/src/exe/rbdock.cxx#4 $)

>  <Rbt.Library>
libRbt.so (2013.1, Build901 2013/11/27)

>  <Rbt.Parameter_File>
/home/malgorzata/Desktop/rDock_2013.1_src/data/scripts/dock.prm

>  <Rbt.Receptor>
cavity.prm

>  <SCORE>
-65.5802

>  <SCORE.INTER>
-9.85996

>  <SCORE.INTER.CONST>
1

>  <SCORE.INTER.POLAR>
0

>  <SCORE.INTER.REPUL>
0

>  <SCORE.INTER.ROT>
9

>  <SCORE.INTER.VDW>
-24.26

>  <SCORE.INTER.norm>
-0.339998

>  <SCORE.INTRA>
-3.52334

>  <SCORE.INTRA.DIHEDRAL>
-2.76756

>  <SCORE.INTRA.DIHEDRAL.0>
14.7815

>  <SCORE.INTRA.POLAR>
0

>  <SCORE.INTRA.POLAR.0>
0

>  <SCORE.INTRA.REPUL>
0

>  <SCORE.INTRA.REPUL.0>
0

>  <SCORE.INTRA.VDW>
-2.13956

>  <SCORE.INTRA.VDW.0>
-0.0652974

>  <SCORE.INTRA.norm>
-0.121494

>  <SCORE.RESTR>
0

>  <SCORE.RESTR.CAVITY>
0

>  <SCORE.RESTR.norm>
0

>  <SCORE.SYSTEM>
-52.1969

>  <SCORE.SYSTEM.CONST>
0

>  <SCORE.SYSTEM.DIHEDRAL>
2.84459

>  <SCORE.SYSTEM.POLAR>
-2.95877

>  <SCORE.SYSTEM.VDW>
-43.5594

>  <SCORE.SYSTEM.norm>
-1.79989

>  <SCORE.heavy>
29

>  <SCORE.norm>
-2.26139

$$$$
OHT.pdb
  rDOCK(R)          3D
libRbt.so/2013.1/901 2013/11/27
 30 32  0  0  0  0  0  0  0  0999 V2000
   67.5795   31.0602   80.3375 C   0  0  0  0  0  0
   67.2818   32.5043   80.6348 C   0  0  0  0  0  0
   68.4229   33.4178   80.2380 C   0  0  0  0  0  0
   69.7303   33.0504   80.8628 C   0  0  0  0  0  0
   70.6043   32.1456   80.2236 C   0  0  0  0  0  0
   71.8453   31.8417   80.7843 C   0  0  0  0  0  0
   72.2470   32.4135   81.9755 C   0  0  0  0  0  0
   71.4074   33.2960   82.6125 C   0  0  0  0  0  0
   70.1611   33.6105   82.0592 C   0  0  0  0  0  0
   68.2600   34.4745   79.3886 C   0  0  0  0  0  0
   67.6599   35.7972   79.7982 C   0  0  0  0  0  0
   66.4827   35.8728   80.6061 C   0  0  0  0  0  0
   65.9161   37.1143   80.9285 C   0  0  0  0  0  0
   66.5202   38.2912   80.4472 C   0  0  0  0  0  0
   65.9396   39.4847   80.7572 O   0  0  0  0  0  0
   67.6859   38.2288   79.6501 C   0  0  0  0  0  0
   68.2307   36.9888   79.3411 C   0  0  0  0  0  0
   68.6434   34.4157   77.9748 C   0  0  0  0  0  0
   67.7465   34.7423   76.9605 C   0  0  0  0  0  0
   68.0932   34.7173   75.6390 C   0  0  0  0  0  0
   69.3823   34.3582   75.2794 C   0  0  0  0  0  0
   69.8211   34.3428   73.9864 O   0  0  0  0  0  0
   69.4664   35.4027   73.1033 C   0  0  0  0  0  0
   69.9141   34.9830   71.7293 C   0  0  0  0  0  0
   69.5499   35.9115   70.6945 N   0  0  0  0  0  0
   70.7284   36.4844   70.0425 C   0  0  0  0  0  0
   68.7538   35.2211   69.6733 C   0  0  0  0  0  0
   70.3136   34.0193   76.2762 C   0  0  0  0  0  0
   69.9413   34.0523   77.5908 C   0  0  0  0  0  0
   66.1885   40.2609   80.2950 H   0  0  0  0  0  0
  1  2  1  0  0  0
  2  3  1  0  0  0
  3  4  1  0  0  0
  3 10  1  0  0  0
  4  5  2  0  0  0
  4  9  1  0  0  0
  5  6  1  0  0  0
  6  7  2  0  0  0
  7  8  1  0  0  0
  8  9  2  0  0  0
 10 11  1  0  0  0
 10 18  1  0  0  0
 11 12  2  0  0  0
 11 17  1  0  0  0
 12 13  1  0  0  0
 13 14  2  0  0  0
 14 15  1  0  0  0
 14 16  1  0  0  0
 15 30  1  0  0  0
 16 17  2  0  0  0
 18 19  2  0  0  0
 18 29  1  0  0  0
 19 20  1  0  0  0
 20 21  2  0  0  0
 21 22  1  0  0  0
 21 28  1  0  0  0
 22 23  1  0  0  0
 23 24  1  0  0  0
 24 25  1  0  0  0
 25 26  1  0  0  0
 25 27  1  0  0  0
 28 29  2  0  0  0
M  END
>  <CHROM.0>
-160.16778502,169.87440414,41.57090663,-82.36937599,-167.64802398

>  <CHROM.1>
-55.67527530,89.56839850,78.22865279,-44.21850804,126.72490454,-165.50682137
42.27128565,-171.32066167,176.12602686,117.17478641,68.89507832,34.79999688
77.79186616,-1.70957981,0.92690346,-1.34464971

>  <FORMUL>
      OHT    C26 H29 N1 O2

>  <HET>
 OHT  A 600      29

>  <HETNAM>
     OHT 4-HYDROXYTAMOXIFEN

>  <Name>
OHT.pdb

>  <RI>
4.16093e+07

>  <Rbt.Current_Directory>
/home/malgorzata/Desktop/rDOCK_IFD/Wyniki/5_estrogen_receptor/IFD

>  <Rbt.Executable>
rbdock ($Id: //depot/dev/client3/rdock/2013.1/src/exe/rbdock.cxx#4 $)

>  <Rbt.Library>
libRbt.so (2013.1, Build901 2013/11/27)

>  <Rbt.Parameter_File>
/home/malgorzata/Desktop/rDock_2013.1_src/data/scripts/dock.prm

>  <Rbt.Receptor>
cavity.prm

>  <SCORE>
-64.8234

>  <SCORE.INTER>
-9.01172

>  <SCORE.INTER.CONST>
1

>  <SCORE.INTER.POLAR>
0

>  <SCORE.INTER.REPUL>
0

>  <SCORE.INTER.ROT>
9

>  <SCORE.INTER.VDW>
-23.4117

>  <SCORE.INTER.norm>
-0.310749

>  <SCORE.INTRA>
-3.13215

>  <SCORE.INTRA.DIHEDRAL>
-0.91008

>  <SCORE.INTRA.DIHEDRAL.0>
14.7815

>  <SCORE.INTRA.POLAR>
0

>  <SCORE.INTRA.POLAR.0>
0

>  <SCORE.INTRA.REPUL>
0

>  <SCORE.INTRA.REPUL.0>
0

>  <SCORE.INTRA.VDW>
-2.67711

>  <SCORE.INTRA.VDW.0>
-0.0652974

>  <SCORE.INTRA.norm>
-0.108005

>  <SCORE.RESTR>
0

>  <SCORE.RESTR.CAVITY>
0

>  <SCORE.RESTR.norm>
0

>  <SCORE.SYSTEM>
-52.6795

>  <SCORE.SYSTEM.CONST>
0

>  <SCORE.SYSTEM.DIHEDRAL>
2.96249

>  <SCORE.SYSTEM.POLAR>
-2.93128

>  <SCORE.SYSTEM.VDW>
-44.1944

>  <SCORE.SYSTEM.norm>
-1.81653

>  <SCORE.heavy>
29

>  <SCORE.norm>
-2.23529

$$$$
OHT.pdb
  rDOCK(R)          3D
libRbt.so/2013.1/901 2013/11/27
 30 32  0  0  0  0  0  0  0  0999 V2000
   69.8568   37.6685   82.5228 C   0  0  0  0  0  0
   69.2003   36.3987   82.9907 C   0  0  0  0  0  0
   68.5898   35.6148   81.8475 C   0  0  0  0  0  0
   67.1054   35.7598   81.7463 C   0  0  0  0  0  0
   66.2480   34.7756   82.2821 C   0  0  0  0  0  0
   64.8631   34.9365   82.2301 C   0  0  0  0  0  0
   64.2982   36.0566   81.6526 C   0  0  0  0  0  0
   65.1186   37.0248   81.1244 C   0  0  0  0  0  0
   66.5093   36.8760   81.1723 C   0  0  0  0  0  0
   69.3358   34.8508   80.9964 C   0  0  0  0  0  0
   70.4040   33.8862   81.4502 C   0  0  0  0  0  0
   71.5027   34.3062   82.2629 C   0  0  0  0  0  0
   72.5094   33.4003   82.6268 C   0  0  0  0  0  0
   72.4275   32.0670   82.1826 C   0  0  0  0  0  0
   73.4282   31.2105   82.5326 O   0  0  0  0  0  0
   71.3443   31.6398   81.3812 C   0  0  0  0  0  0
   70.3581   32.5532   81.0307 C   0  0  0  0  0  0
   69.1774   34.9097   79.5401 C   0  0  0  0  0  0
   70.2476   35.2086   78.7004 C   0  0  0  0  0  0
   70.1246   35.2436   77.3399 C   0  0  0  0  0  0
   68.8962   34.9712   76.7595 C   0  0  0  0  0  0
   68.6958   34.9488   75.4090 O   0  0  0  0  0  0
   69.0048   33.7745   74.6644 C   0  0  0  0  0  0
   68.5647   34.0366   73.2495 C   0  0  0  0  0  0
   67.1680   34.3534   73.1284 N   0  0  0  0  0  0
   66.9136   35.2563   72.0049 C   0  0  0  0  0  0
   66.4025   33.1214   72.9062 C   0  0  0  0  0  0
   67.7929   34.6684   77.5762 C   0  0  0  0  0  0
   67.9428   34.6400   78.9344 C   0  0  0  0  0  0
   73.3945   30.3144   82.2605 H   0  0  0  0  0  0
  1  2  1  0  0  0
  2  3  1  0  0  0
  3  4  1  0  0  0
  3 10  1  0  0  0
  4  5  2  0  0  0
  4  9  1  0  0  0
  5  6  1  0  0  0
  6  7  2  0  0  0
  7  8  1  0  0  0
  8  9  2  0  0  0
 10 11  1  0  0  0
 10 18  1  0  0  0
 11 12  2  0  0  0
 11 17  1  0  0  0
 12 13  1  0  0  0
 13 14  2  0  0  0
 14 15  1  0  0  0
 14 16  1  0  0  0
 15 30  1  0  0  0
 16 17  2  0  0  0
 18 19  2  0  0  0
 18 29  1  0  0  0
 19 20  1  0  0  0
 20 21  2  0  0  0
 21 22  1  0  0  0
 21 28  1  0  0  0
 22 23  1  0  0  0
 23 24  1  0  0  0
 24 25  1  0  0  0
 25 26  1  0  0  0
 25 27  1  0  0  0
 28 29  2  0  0  0
M  END
>  <CHROM.0>
-159.73843976,104.51732325,41.73303999,-159.02296940,-176.95567650

>  <CHROM.1>
-102.16696318,-98.37747171,46.41783303,-56.22876716,123.24088847,179.20088916
83.32073185,175.29662571,-58.18319119,149.28819233,68.77716575,34.60666738
79.28636058,1.24188883,-0.51994743,1.42396290

>  <FORMUL>
      OHT    C26 H29 N1 O2

>  <HET>
 OHT  A 600      29

>  <HETNAM>
     OHT 4-HYDROXYTAMOXIFEN

>  <Name>
OHT.pdb

>  <RI>
4.16093e+07

>  <Rbt.Current_Directory>
/home/malgorzata/Desktop/rDOCK_IFD/Wyniki/5_estrogen_receptor/IFD

>  <Rbt.Executable>
rbdock ($Id: //depot/dev/client3/rdock/2013.1/src/exe/rbdock.cxx#4 $)

>  <Rbt.Library>
libRbt.so (2013.1, Build901 2013/11/27)

>  <Rbt.Parameter_File>
/home/malgorzata/Desktop/rDock_2013.1_src/data/scripts/dock.prm

>  <Rbt.Receptor>
cavity.prm

>  <SCORE>
-58.8001

>  <SCORE.INTER>
-1.29465

>  <SCORE.INTER.CONST>
1

>  <SCORE.INTER.POLAR>
0

>  <SCORE.INTER.REPUL>
0

>  <SCORE.INTER.ROT>
9

>  <SCORE.INTER.VDW>
-15.6946

>  <SCORE.INTER.norm>
-0.044643

>  <SCORE.INTRA>
-5.07975

>  <SCORE.INTRA.DIHEDRAL>
-2.16708

>  <SCORE.INTRA.DIHEDRAL.0>
14.7815

>  <SCORE.INTRA.POLAR>
0

>  <SCORE.INTRA.POLAR.0>
0

>  <SCORE.INTRA.REPUL>
0

>  <SCORE.INTRA.REPUL.0>
0

>  <SCORE.INTRA.VDW>
-3.99621

>  <SCORE.INTRA.VDW.0>
-0.0652974

>  <SCORE.INTRA.norm>
-0.175164

>  <SCORE.RESTR>
0.485571

>  <SCORE.RESTR.CAVITY>
0.485571

>  <SCORE.RESTR.norm>
0.0167438

>  <SCORE.SYSTEM>
-52.9113

>  <SCORE.SYSTEM.CONST>
0

>  <SCORE.SYSTEM.DIHEDRAL>
2.75133

>  <SCORE.SYSTEM.POLAR>
-2.9199

>  <SCORE.SYSTEM.VDW>
-44.3593

>  <SCORE.SYSTEM.norm>
-1.82453

>  <SCORE.heavy>
29

>  <SCORE.norm>
-2.02759

$$$$
OHT.pdb
  rDOCK(R)          3D
libRbt.so/2013.1/901 2013/11/27
 30 32  0  0  0  0  0  0  0  0999 V2000
   71.1761   36.0031   82.5971 C   0  0  0  0  0  0
   69.9395   35.1469   82.6060 C   0  0  0  0  0  0
   68.7054   35.9189   82.1876 C   0  0  0  0  0  0
   67.8131   36.2877   83.3288 C   0  0  0  0  0  0
   67.8982   37.5635   83.9256 C   0  0  0  0  0  0
   67.0314   37.9231   84.9581 C   0  0  0  0  0  0
   66.0743   37.0426   85.4226 C   0  0  0  0  0  0
   65.9783   35.7950   84.8536 C   0  0  0  0  0  0
   66.8405   35.4231   83.8159 C   0  0  0  0  0  0
   68.4436   36.2414   80.8867 C   0  0  0  0  0  0
   67.6736   37.4684   80.4636 C   0  0  0  0  0  0
   66.3196   37.6853   80.8687 C   0  0  0  0  0  0
   65.6105   38.8081   80.4182 C   0  0  0  0  0  0
   66.2471   39.7241   79.5596 C   0  0  0  0  0  0
   65.5308   40.7967   79.1193 O   0  0  0  0  0  0
   67.5862   39.5215   79.1551 C   0  0  0  0  0  0
   68.2708   38.4022   79.6115 C   0  0  0  0  0  0
   68.8785   35.4045   79.7643 C   0  0  0  0  0  0
   67.9925   34.5662   79.0919 C   0  0  0  0  0  0
   68.3740   33.7978   78.0283 C   0  0  0  0  0  0
   69.6873   33.8459   77.5892 C   0  0  0  0  0  0
   70.1422   33.1396   76.5128 O   0  0  0  0  0  0
   69.3749   33.1002   75.3133 C   0  0  0  0  0  0
   69.5165   34.4531   74.6700 C   0  0  0  0  0  0
   68.7730   34.5921   73.4478 N   0  0  0  0  0  0
   67.4808   35.2418   73.6717 C   0  0  0  0  0  0
   69.5368   35.4102   72.4988 C   0  0  0  0  0  0
   70.6101   34.6786   78.2457 C   0  0  0  0  0  0
   70.2028   35.4370   79.3072 C   0  0  0  0  0  0
   64.7073   41.0046   79.5151 H   0  0  0  0  0  0
  1  2  1  0  0  0
  2  3  1  0  0  0
  3  4  1  0  0  0
  3 10  1  0  0  0
  4  5  2  0  0  0
  4  9  1  0  0  0
  5  6  1  0  0  0
  6  7  2  0  0  0
  7  8  1  0  0  0
  8  9  2  0  0  0
 10 11  1  0  0  0
 10 18  1  0  0  0
 11 12  2  0  0  0
 11 17  1  0  0  0
 12 13  1  0  0  0
 13 14  2  0  0  0
 14 15  1  0  0  0
 14 16  1  0  0  0
 15 30  1  0  0  0
 16 17  2  0  0  0
 18 19  2  0  0  0
 18 29  1  0  0  0
 19 20  1  0  0  0
 20 21  2  0  0  0
 21 22  1  0  0  0
 21 28  1  0  0  0
 22 23  1  0  0  0
 23 24  1  0  0  0
 24 25  1  0  0  0
 25 26  1  0  0  0
 25 27  1  0  0  0
 28 29  2  0  0  0
M  END
>  <CHROM.0>
-153.37538753,118.07253653,41.71716416,-91.58056858,1.37614601

>  <CHROM.1>
-103.86021422,96.57701885,-150.24134255,-60.64428955,102.69088038,12.19543278
44.44860354,73.31582512,-178.81866482,96.89318582,68.21514284,36.17755059
79.59948578,-1.96584048,0.96485900,-1.55272980

>  <FORMUL>
      OHT    C26 H29 N1 O2

>  <HET>
 OHT  A 600      29

>  <HETNAM>
     OHT 4-HYDROXYTAMOXIFEN

>  <Name>
OHT.pdb

>  <RI>
4.16093e+07

>  <Rbt.Current_Directory>
/home/malgorzata/Desktop/rDOCK_IFD/Wyniki/5_estrogen_receptor/IFD

>  <Rbt.Executable>
rbdock ($Id: //depot/dev/client3/rdock/2013.1/src/exe/rbdock.cxx#4 $)

>  <Rbt.Library>
libRbt.so (2013.1, Build901 2013/11/27)

>  <Rbt.Parameter_File>
/home/malgorzata/Desktop/rDock_2013.1_src/data/scripts/dock.prm

>  <Rbt.Receptor>
cavity.prm

>  <SCORE>
-67.3391

>  <SCORE.INTER>
-9.11132

>  <SCORE.INTER.CONST>
1

>  <SCORE.INTER.POLAR>
0

>  <SCORE.INTER.REPUL>
0

>  <SCORE.INTER.ROT>
9

>  <SCORE.INTER.VDW>
-23.5113

>  <SCORE.INTER.norm>
-0.314183

>  <SCORE.INTRA>
-5.16199

>  <SCORE.INTRA.DIHEDRAL>
-3.02064

>  <SCORE.INTRA.DIHEDRAL.0>
14.7815

>  <SCORE.INTRA.POLAR>
0

>  <SCORE.INTRA.POLAR.0>
0

>  <SCORE.INTRA.REPUL>
0

>  <SCORE.INTRA.REPUL.0>
0

>  <SCORE.INTRA.VDW>
-3.65167

>  <SCORE.INTRA.VDW.0>
-0.0652974

>  <SCORE.INTRA.norm>
-0.178

>  <SCORE.RESTR>
0

>  <SCORE.RESTR.CAVITY>
0

>  <SCORE.RESTR.norm>
0

>  <SCORE.SYSTEM>
-53.0657

>  <SCORE.SYSTEM.CONST>
0

>  <SCORE.SYSTEM.DIHEDRAL>
2.72151

>  <SCORE.SYSTEM.POLAR>
-2.92229

>  <SCORE.SYSTEM.VDW>
-44.4907

>  <SCORE.SYSTEM.norm>
-1.82985

>  <SCORE.heavy>
29

>  <SCORE.norm>
-2.32204

$$$$
OHT.pdb
  rDOCK(R)          3D
libRbt.so/2013.1/901 2013/11/27
 30 32  0  0  0  0  0  0  0  0999 V2000
   72.2424   35.8781   83.5623 C   0  0  0  0  0  0
   71.4000   36.9019   84.2725 C   0  0  0  0  0  0
   70.4402   37.6042   83.3345 C   0  0  0  0  0  0
   70.8424   39.0054   83.0038 C   0  0  0  0  0  0
   72.1495   39.4621   83.2757 C   0  0  0  0  0  0
   72.5375   40.7547   82.9216 C   0  0  0  0  0  0
   71.6553   41.6176   82.3016 C   0  0  0  0  0  0
   70.3775   41.1896   82.0304 C   0  0  0  0  0  0
   69.9769   39.8948   82.3788 C   0  0  0  0  0  0
   69.3165   37.0031   82.8441 C   0  0  0  0  0  0
   68.0314   36.8613   83.6224 C   0  0  0  0  0  0
   67.1812   35.7216   83.4722 C   0  0  0  0  0  0
   65.9667   35.6398   84.1684 C   0  0  0  0  0  0
   65.5907   36.6951   85.0209 C   0  0  0  0  0  0
   64.3965   36.6016   85.6711 O   0  0  0  0  0  0
   66.4247   37.8253   85.1794 C   0  0  0  0  0  0
   67.6231   37.8875   84.4797 C   0  0  0  0  0  0
   69.2584   36.4162   81.5019 C   0  0  0  0  0  0
   68.6310   37.0710   80.4447 C   0  0  0  0  0  0
   68.5885   36.5511   79.1818 C   0  0  0  0  0  0
   69.1899   35.3290   78.9274 C   0  0  0  0  0  0
   69.2252   34.7566   77.6882 O   0  0  0  0  0  0
   68.2372   35.0967   76.7201 C   0  0  0  0  0  0
   68.4200   34.1447   75.5692 C   0  0  0  0  0  0
   69.7557   34.1296   75.0387 N   0  0  0  0  0  0
   70.4693   32.9053   75.4046 C   0  0  0  0  0  0
   69.7033   34.2070   73.5743 C   0  0  0  0  0  0
   69.8299   34.6381   79.9709 C   0  0  0  0  0  0
   69.8581   35.1801   81.2252 C   0  0  0  0  0  0
   63.8735   35.8293   85.5814 H   0  0  0  0  0  0
  1  2  1  0  0  0
  2  3  1  0  0  0
  3  4  1  0  0  0
  3 10  1  0  0  0
  4  5  2  0  0  0
  4  9  1  0  0  0
  5  6  1  0  0  0
  6  7  2  0  0  0
  7  8  1  0  0  0
  8  9  2  0  0  0
 10 11  1  0  0  0
 10 18  1  0  0  0
 11 12  2  0  0  0
 11 17  1  0  0  0
 12 13  1  0  0  0
 13 14  2  0  0  0
 14 15  1  0  0  0
 14 16  1  0  0  0
 15 30  1  0  0  0
 16 17  2  0  0  0
 18 19  2  0  0  0
 18 29  1  0  0  0
 19 20  1  0  0  0
 20 21  2  0  0  0
 21 22  1  0  0  0
 21 28  1  0  0  0
 22 23  1  0  0  0
 23 24  1  0  0  0
 24 25  1  0  0  0
 25 26  1  0  0  0
 25 27  1  0  0  0
 28 29  2  0  0  0
M  END
>  <CHROM.0>
-147.37950642,129.80006082,41.36558396,-146.79306306,5.44740369

>  <CHROM.1>
-105.82486190,15.07404247,79.79138061,-145.89327335,-102.41471281,3.36225567
-24.50539819,-170.94570051,-54.43436701,106.99480632,69.20250170,36.71568239
81.17826229,-1.66132988,-0.59297695,-2.06594244

>  <FORMUL>
      OHT    C26 H29 N1 O2

>  <HET>
 OHT  A 600      29

>  <HETNAM>
     OHT 4-HYDROXYTAMOXIFEN

>  <Name>
OHT.pdb

>  <RI>
4.16093e+07

>  <Rbt.Current_Directory>
/home/malgorzata/Desktop/rDOCK_IFD/Wyniki/5_estrogen_receptor/IFD

>  <Rbt.Executable>
rbdock ($Id: //depot/dev/client3/rdock/2013.1/src/exe/rbdock.cxx#4 $)

>  <Rbt.Library>
libRbt.so (2013.1, Build901 2013/11/27)

>  <Rbt.Parameter_File>
/home/malgorzata/Desktop/rDock_2013.1_src/data/scripts/dock.prm

>  <Rbt.Receptor>
cavity.prm

>  <SCORE>
-65.9395

>  <SCORE.INTER>
-9.01605

>  <SCORE.INTER.CONST>
1

>  <SCORE.INTER.POLAR>
-0.419375

>  <SCORE.INTER.REPUL>
0

>  <SCORE.INTER.ROT>
9

>  <SCORE.INTER.VDW>
-21.9902

>  <SCORE.INTER.norm>
-0.310898

>  <SCORE.INTRA>
-3.92377

>  <SCORE.INTRA.DIHEDRAL>
-4.97162

>  <SCORE.INTRA.DIHEDRAL.0>
14.7815

>  <SCORE.INTRA.POLAR>
0

>  <SCORE.INTRA.POLAR.0>
0

>  <SCORE.INTRA.REPUL>
0

>  <SCORE.INTRA.REPUL.0>
0

>  <SCORE.INTRA.VDW>
-1.43797

>  <SCORE.INTRA.VDW.0>
-0.0652974

>  <SCORE.INTRA.norm>
-0.135303

>  <SCORE.RESTR>
0

>  <SCORE.RESTR.CAVITY>
0

>  <SCORE.RESTR.norm>
0

>  <SCORE.SYSTEM>
-52.9997

>  <SCORE.SYSTEM.CONST>
0

>  <SCORE.SYSTEM.DIHEDRAL>
2.84028

>  <SCORE.SYSTEM.POLAR>
-2.91962

>  <SCORE.SYSTEM.VDW>
-44.4931

>  <SCORE.SYSTEM.norm>
-1.82757

>  <SCORE.heavy>
29

>  <SCORE.norm>
-2.27378

$$$$
