OHT.pdb
  rDOCK(R)          3D
libRbt.so/2013.1/901 2013/11/27
 30 32  0  0  0  0  0  0  0  0999 V2000
   70.4312   32.5310   80.6335 C   0  0  0  0  0  0
   71.2069   33.5610   79.8592 C   0  0  0  0  0  0
   70.6915   34.9651   80.0982 C   0  0  0  0  0  0
   71.6899   35.8677   80.7485 C   0  0  0  0  0  0
   71.8661   35.8558   82.1485 C   0  0  0  0  0  0
   72.8326   36.6634   82.7489 C   0  0  0  0  0  0
   73.6358   37.4938   81.9922 C   0  0  0  0  0  0
   73.4768   37.5190   80.6271 C   0  0  0  0  0  0
   72.5123   36.7122   80.0128 C   0  0  0  0  0  0
   69.4312   35.3572   79.7481 C   0  0  0  0  0  0
   68.3671   35.7517   80.7428 C   0  0  0  0  0  0
   68.2900   37.0749   81.2789 C   0  0  0  0  0  0
   67.3235   37.4005   82.2413 C   0  0  0  0  0  0
   66.4253   36.4077   82.6765 C   0  0  0  0  0  0
   65.5080   36.7432   83.6271 O   0  0  0  0  0  0
   66.4902   35.0971   82.1513 C   0  0  0  0  0  0
   67.4559   34.7947   81.1996 C   0  0  0  0  0  0
   68.9830   35.4165   78.3535 C   0  0  0  0  0  0
   68.5250   36.6017   77.7832 C   0  0  0  0  0  0
   68.1267   36.6816   76.4785 C   0  0  0  0  0  0
   68.1772   35.5503   75.6801 C   0  0  0  0  0  0
   67.8332   35.5517   74.3586 O   0  0  0  0  0  0
   66.9534   34.5522   73.8526 C   0  0  0  0  0  0
   66.9143   34.7326   72.3592 C   0  0  0  0  0  0
   66.4501   36.0286   71.9460 N   0  0  0  0  0  0
   66.9139   36.3652   70.5993 C   0  0  0  0  0  0
   64.9828   36.0460   71.9410 C   0  0  0  0  0  0
   68.6314   34.3357   76.2227 C   0  0  0  0  0  0
   69.0239   34.2827   77.5308 C   0  0  0  0  0  0
   65.4375   37.6313   83.9174 H   0  0  0  0  0  0
  1  2  1  0  0  0
  2  3  1  0  0  0
  3  4  1  0  0  0
  3 10  1  0  0  0
  4  5  2  0  0  0
  4  9  1  0  0  0
  5  6  1  0  0  0
  6  7  2  0  0  0
  7  8  1  0  0  0
  8  9  2  0  0  0
 10 11  1  0  0  0
 10 18  1  0  0  0
 11 12  2  0  0  0
 11 17  1  0  0  0
 12 13  1  0  0  0
 13 14  2  0  0  0
 14 15  1  0  0  0
 14 16  1  0  0  0
 15 30  1  0  0  0
 16 17  2  0  0  0
 18 19  2  0  0  0
 18 29  1  0  0  0
 19 20  1  0  0  0
 20 21  2  0  0  0
 21 22  1  0  0  0
 21 28  1  0  0  0
 22 23  1  0  0  0
 23 24  1  0  0  0
 24 25  1  0  0  0
 25 26  1  0  0  0
 25 27  1  0  0  0
 28 29  2  0  0  0
M  END
>  <CHROM.0>
109.97832899,179.24772886,-104.70957159,176.06242343

>  <CHROM.1>
116.79446873,-82.83100623,114.11408737,83.96717362,-121.10584953,5.38555252
-131.64963071,-173.26259583,-59.51090522,157.13596738,68.86116141,35.71063134
78.50694601,-1.20370791,0.02054716,-1.63802597

>  <FORMUL>
      OHT    C26 H29 N1 O2

>  <HET>
 OHT  A 600      29

>  <HETNAM>
     OHT 4-HYDROXYTAMOXIFEN

>  <Name>
OHT.pdb

>  <RI>
0

>  <Rbt.Current_Directory>
/home/malgorzata/Desktop/rDOCK_IFD/Wyniki/5_estrogen_receptor/IFD

>  <Rbt.Executable>
rbdock ($Id: //depot/dev/client3/rdock/2013.1/src/exe/rbdock.cxx#4 $)

>  <Rbt.Library>
libRbt.so (2013.1, Build901 2013/11/27)

>  <Rbt.Parameter_File>
/home/malgorzata/Desktop/rDock_2013.1_src/data/scripts/dock.prm

>  <Rbt.Receptor>
cavity.prm

>  <SCORE>
-4.25075

>  <SCORE.INTER>
1.01131

>  <SCORE.INTER.CONST>
1

>  <SCORE.INTER.POLAR>
0

>  <SCORE.INTER.REPUL>
0

>  <SCORE.INTER.ROT>
9

>  <SCORE.INTER.VDW>
-13.3887

>  <SCORE.INTER.norm>
0.0348728

>  <SCORE.INTRA>
-5.07817

>  <SCORE.INTRA.DIHEDRAL>
-4.4759

>  <SCORE.INTRA.DIHEDRAL.0>
14.7815

>  <SCORE.INTRA.POLAR>
0

>  <SCORE.INTRA.POLAR.0>
0

>  <SCORE.INTRA.REPUL>
0

>  <SCORE.INTRA.REPUL.0>
0

>  <SCORE.INTRA.VDW>
-2.84022

>  <SCORE.INTRA.VDW.0>
-0.0652974

>  <SCORE.INTRA.norm>
-0.175109

>  <SCORE.RESTR>
0

>  <SCORE.RESTR.CAVITY>
0

>  <SCORE.RESTR.norm>
0

>  <SCORE.SYSTEM>
-0.183894

>  <SCORE.SYSTEM.CONST>
0

>  <SCORE.SYSTEM.DIHEDRAL>
0.82719

>  <SCORE.SYSTEM.VDW>
-0.597489

>  <SCORE.SYSTEM.norm>
-0.00634116

>  <SCORE.heavy>
29

>  <SCORE.norm>
-0.146578

$$$$
OHT.pdb
  rDOCK(R)          3D
libRbt.so/2013.1/901 2013/11/27
 30 32  0  0  0  0  0  0  0  0999 V2000
   65.4721   35.0280   70.1776 C   0  0  0  0  0  0
   65.9586   36.0039   71.2135 C   0  0  0  0  0  0
   67.3878   35.7288   71.6330 C   0  0  0  0  0  0
   68.3963   36.5598   70.9073 C   0  0  0  0  0  0
   68.7086   36.2959   69.5568 C   0  0  0  0  0  0
   69.6137   37.1031   68.8670 C   0  0  0  0  0  0
   70.2269   38.1744   69.4862 C   0  0  0  0  0  0
   69.9355   38.4451   70.8020 C   0  0  0  0  0  0
   69.0278   37.6442   71.5041 C   0  0  0  0  0  0
   67.7116   34.8056   72.5857 C   0  0  0  0  0  0
   67.6214   33.3140   72.3756 C   0  0  0  0  0  0
   66.3738   32.6183   72.4373 C   0  0  0  0  0  0
   66.3252   31.2245   72.2904 C   0  0  0  0  0  0
   67.5217   30.5134   72.0803 C   0  0  0  0  0  0
   67.4509   29.1576   71.9606 O   0  0  0  0  0  0
   68.7605   31.1909   72.0145 C   0  0  0  0  0  0
   68.7872   32.5718   72.1637 C   0  0  0  0  0  0
   68.1680   35.1837   73.9266 C   0  0  0  0  0  0
   69.5198   35.1956   74.2618 C   0  0  0  0  0  0
   69.9654   35.5688   75.4985 C   0  0  0  0  0  0
   69.0502   35.9548   76.4647 C   0  0  0  0  0  0
   69.4126   36.3765   77.7118 O   0  0  0  0  0  0
   68.8751   35.7330   78.8633 C   0  0  0  0  0  0
   69.4490   36.4448   80.0585 C   0  0  0  0  0  0
   70.8849   36.4148   80.1141 N   0  0  0  0  0  0
   71.4565   37.7612   80.0629 C   0  0  0  0  0  0
   71.3146   35.7838   81.3673 C   0  0  0  0  0  0
   67.6773   35.9522   76.1628 C   0  0  0  0  0  0
   67.2579   35.5745   74.9181 C   0  0  0  0  0  0
   66.6193   28.7395   71.8529 H   0  0  0  0  0  0
  1  2  1  0  0  0
  2  3  1  0  0  0
  3  4  1  0  0  0
  3 10  1  0  0  0
  4  5  2  0  0  0
  4  9  1  0  0  0
  5  6  1  0  0  0
  6  7  2  0  0  0
  7  8  1  0  0  0
  8  9  2  0  0  0
 10 11  1  0  0  0
 10 18  1  0  0  0
 11 12  2  0  0  0
 11 17  1  0  0  0
 12 13  1  0  0  0
 13 14  2  0  0  0
 14 15  1  0  0  0
 14 16  1  0  0  0
 15 30  1  0  0  0
 16 17  2  0  0  0
 18 19  2  0  0  0
 18 29  1  0  0  0
 19 20  1  0  0  0
 20 21  2  0  0  0
 21 22  1  0  0  0
 21 28  1  0  0  0
 22 23  1  0  0  0
 23 24  1  0  0  0
 24 25  1  0  0  0
 25 26  1  0  0  0
 25 27  1  0  0  0
 28 29  2  0  0  0
M  END
>  <CHROM.0>
-63.80123078,61.59319375,152.71903446,4.25075206

>  <CHROM.1>
96.28826631,-73.26408075,72.00460963,-78.44593793,-98.83617069,11.77141542
-124.80455745,-178.99690614,-59.12076780,118.63758112,68.57621677,35.09998959
73.95298612,-2.39830942,1.19192654,2.11155698

>  <FORMUL>
      OHT    C26 H29 N1 O2

>  <HET>
 OHT  A 600      29

>  <HETNAM>
     OHT 4-HYDROXYTAMOXIFEN

>  <Name>
OHT.pdb

>  <RI>
0

>  <Rbt.Current_Directory>
/home/malgorzata/Desktop/rDOCK_IFD/Wyniki/5_estrogen_receptor/IFD

>  <Rbt.Executable>
rbdock ($Id: //depot/dev/client3/rdock/2013.1/src/exe/rbdock.cxx#4 $)

>  <Rbt.Library>
libRbt.so (2013.1, Build901 2013/11/27)

>  <Rbt.Parameter_File>
/home/malgorzata/Desktop/rDock_2013.1_src/data/scripts/dock.prm

>  <Rbt.Receptor>
cavity.prm

>  <SCORE>
-7.92713

>  <SCORE.INTER>
-2.12823

>  <SCORE.INTER.CONST>
1

>  <SCORE.INTER.POLAR>
0

>  <SCORE.INTER.REPUL>
0

>  <SCORE.INTER.ROT>
9

>  <SCORE.INTER.VDW>
-16.5282

>  <SCORE.INTER.norm>
-0.0733874

>  <SCORE.INTRA>
-5.23679

>  <SCORE.INTRA.DIHEDRAL>
-2.06586

>  <SCORE.INTRA.DIHEDRAL.0>
14.7815

>  <SCORE.INTRA.POLAR>
0

>  <SCORE.INTRA.POLAR.0>
0

>  <SCORE.INTRA.REPUL>
0

>  <SCORE.INTRA.REPUL.0>
0

>  <SCORE.INTRA.VDW>
-4.20386

>  <SCORE.INTRA.VDW.0>
-0.0652974

>  <SCORE.INTRA.norm>
-0.180579

>  <SCORE.RESTR>
0

>  <SCORE.RESTR.CAVITY>
0

>  <SCORE.RESTR.norm>
0

>  <SCORE.SYSTEM>
-0.562102

>  <SCORE.SYSTEM.CONST>
0

>  <SCORE.SYSTEM.DIHEDRAL>
0.818965

>  <SCORE.SYSTEM.VDW>
-0.971584

>  <SCORE.SYSTEM.norm>
-0.0193828

>  <SCORE.heavy>
29

>  <SCORE.norm>
-0.273349

$$$$
OHT.pdb
  rDOCK(R)          3D
libRbt.so/2013.1/901 2013/11/27
 30 32  0  0  0  0  0  0  0  0999 V2000
   71.0598   34.8084   81.8610 C   0  0  0  0  0  0
   70.7900   33.8231   80.7570 C   0  0  0  0  0  0
   69.3798   33.9401   80.2169 C   0  0  0  0  0  0
   68.5001   32.7883   80.5827 C   0  0  0  0  0  0
   68.8167   31.4790   80.1624 C   0  0  0  0  0  0
   68.0213   30.3988   80.5460 C   0  0  0  0  0  0
   66.9069   30.5826   81.3406 C   0  0  0  0  0  0
   66.5829   31.8516   81.7580 C   0  0  0  0  0  0
   67.3738   32.9430   81.3818 C   0  0  0  0  0  0
   68.9635   35.0027   79.4672 C   0  0  0  0  0  0
   68.7610   36.3927   80.0190 C   0  0  0  0  0  0
   68.0807   36.6208   81.2557 C   0  0  0  0  0  0
   67.8602   37.9257   81.7195 C   0  0  0  0  0  0
   68.3172   39.0141   80.9526 C   0  0  0  0  0  0
   68.0732   40.2730   81.4143 O   0  0  0  0  0  0
   68.9935   38.8005   79.7299 C   0  0  0  0  0  0
   69.2008   37.5000   79.2875 C   0  0  0  0  0  0
   68.6540   34.8867   78.0389 C   0  0  0  0  0  0
   67.6936   35.6922   77.4316 C   0  0  0  0  0  0
   67.4095   35.6154   76.0973 C   0  0  0  0  0  0
   68.0961   34.7090   75.3054 C   0  0  0  0  0  0
   67.9000   34.5936   73.9590 O   0  0  0  0  0  0
   67.9934   35.7455   73.1263 C   0  0  0  0  0  0
   67.6867   35.2874   71.7261 C   0  0  0  0  0  0
   66.3383   34.8208   71.5534 N   0  0  0  0  0  0
   65.4259   35.9153   71.2188 C   0  0  0  0  0  0
   66.2939   33.8401   70.4627 C   0  0  0  0  0  0
   69.0703   33.8776   75.8847 C   0  0  0  0  0  0
   69.3354   33.9744   77.2219 C   0  0  0  0  0  0
   67.6946   40.3957   82.2626 H   0  0  0  0  0  0
  1  2  1  0  0  0
  2  3  1  0  0  0
  3  4  1  0  0  0
  3 10  1  0  0  0
  4  5  2  0  0  0
  4  9  1  0  0  0
  5  6  1  0  0  0
  6  7  2  0  0  0
  7  8  1  0  0  0
  8  9  2  0  0  0
 10 11  1  0  0  0
 10 18  1  0  0  0
 11 12  2  0  0  0
 11 17  1  0  0  0
 12 13  1  0  0  0
 13 14  2  0  0  0
 14 15  1  0  0  0
 14 16  1  0  0  0
 15 30  1  0  0  0
 16 17  2  0  0  0
 18 19  2  0  0  0
 18 29  1  0  0  0
 19 20  1  0  0  0
 20 21  2  0  0  0
 21 22  1  0  0  0
 21 28  1  0  0  0
 22 23  1  0  0  0
 23 24  1  0  0  0
 24 25  1  0  0  0
 25 26  1  0  0  0
 25 27  1  0  0  0
 28 29  2  0  0  0
M  END
>  <CHROM.0>
-63.69686993,60.31931857,146.67737015,-178.73670962

>  <CHROM.1>
-109.20431042,-61.25264496,-70.36360339,-44.99131757,149.36144969,6.46437965
53.10173989,-178.31446970,65.20781014,87.54861775,68.17528634,34.97747498
77.98420453,0.23697143,1.37948888,2.89091041

>  <FORMUL>
      OHT    C26 H29 N1 O2

>  <HET>
 OHT  A 600      29

>  <HETNAM>
     OHT 4-HYDROXYTAMOXIFEN

>  <Name>
OHT.pdb

>  <RI>
0

>  <Rbt.Current_Directory>
/home/malgorzata/Desktop/rDOCK_IFD/Wyniki/5_estrogen_receptor/IFD

>  <Rbt.Executable>
rbdock ($Id: //depot/dev/client3/rdock/2013.1/src/exe/rbdock.cxx#4 $)

>  <Rbt.Library>
libRbt.so (2013.1, Build901 2013/11/27)

>  <Rbt.Parameter_File>
/home/malgorzata/Desktop/rDock_2013.1_src/data/scripts/dock.prm

>  <Rbt.Receptor>
cavity.prm

>  <SCORE>
-7.39789

>  <SCORE.INTER>
-2.36967

>  <SCORE.INTER.CONST>
1

>  <SCORE.INTER.POLAR>
0

>  <SCORE.INTER.REPUL>
0

>  <SCORE.INTER.ROT>
9

>  <SCORE.INTER.VDW>
-16.7697

>  <SCORE.INTER.norm>
-0.0817126

>  <SCORE.INTRA>
-4.53545

>  <SCORE.INTRA.DIHEDRAL>
-4.30065

>  <SCORE.INTRA.DIHEDRAL.0>
14.7815

>  <SCORE.INTRA.POLAR>
0

>  <SCORE.INTRA.POLAR.0>
0

>  <SCORE.INTRA.REPUL>
0

>  <SCORE.INTRA.REPUL.0>
0

>  <SCORE.INTRA.VDW>
-2.38513

>  <SCORE.INTRA.VDW.0>
-0.0652974

>  <SCORE.INTRA.norm>
-0.156395

>  <SCORE.RESTR>
0

>  <SCORE.RESTR.CAVITY>
0

>  <SCORE.RESTR.norm>
0

>  <SCORE.SYSTEM>
-0.492767

>  <SCORE.SYSTEM.CONST>
0

>  <SCORE.SYSTEM.DIHEDRAL>
0.783169

>  <SCORE.SYSTEM.VDW>
-0.884352

>  <SCORE.SYSTEM.norm>
-0.016992

>  <SCORE.heavy>
29

>  <SCORE.norm>
-0.2551

$$$$
OHT.pdb
  rDOCK(R)          3D
libRbt.so/2013.1/901 2013/11/27
 30 32  0  0  0  0  0  0  0  0999 V2000
   67.2203   34.9866   82.2296 C   0  0  0  0  0  0
   66.8912   34.0751   81.0794 C   0  0  0  0  0  0
   68.1047   33.7682   80.2265 C   0  0  0  0  0  0
   68.5618   32.3483   80.3228 C   0  0  0  0  0  0
   69.9367   32.0379   80.3886 C   0  0  0  0  0  0
   70.3597   30.7156   80.5279 C   0  0  0  0  0  0
   69.4479   29.6810   80.6013 C   0  0  0  0  0  0
   68.1046   29.9652   80.5373 C   0  0  0  0  0  0
   67.6676   31.2875   80.3998 C   0  0  0  0  0  0
   68.7148   34.7090   79.4472 C   0  0  0  0  0  0
   69.5941   35.8086   79.9905 C   0  0  0  0  0  0
   69.1060   37.1389   80.1815 C   0  0  0  0  0  0
   69.9588   38.1540   80.6384 C   0  0  0  0  0  0
   71.3064   37.8495   80.9088 C   0  0  0  0  0  0
   72.1203   38.8573   81.3325 O   0  0  0  0  0  0
   71.7992   36.5373   80.7266 C   0  0  0  0  0  0
   70.9383   35.5464   80.2719 C   0  0  0  0  0  0
   68.5568   34.7488   77.9903 C   0  0  0  0  0  0
   67.7732   35.7167   77.3665 C   0  0  0  0  0  0
   67.6342   35.7845   76.0089 C   0  0  0  0  0  0
   68.2934   34.8644   75.2096 C   0  0  0  0  0  0
   68.2380   34.8837   73.8454 O   0  0  0  0  0  0
   67.2433   35.6611   73.1858 C   0  0  0  0  0  0
   67.5881   35.6439   71.7212 C   0  0  0  0  0  0
   66.7283   36.4671   70.9157 N   0  0  0  0  0  0
   67.4348   37.0162   69.7575 C   0  0  0  0  0  0
   65.6007   35.6665   70.4249 C   0  0  0  0  0  0
   69.0908   33.8713   75.8046 C   0  0  0  0  0  0
   69.2130   33.8255   77.1651 C   0  0  0  0  0  0
   73.0303   38.6926   81.4832 H   0  0  0  0  0  0
  1  2  1  0  0  0
  2  3  1  0  0  0
  3  4  1  0  0  0
  3 10  1  0  0  0
  4  5  2  0  0  0
  4  9  1  0  0  0
  5  6  1  0  0  0
  6  7  2  0  0  0
  7  8  1  0  0  0
  8  9  2  0  0  0
 10 11  1  0  0  0
 10 18  1  0  0  0
 11 12  2  0  0  0
 11 17  1  0  0  0
 12 13  1  0  0  0
 13 14  2  0  0  0
 14 15  1  0  0  0
 14 16  1  0  0  0
 15 30  1  0  0  0
 16 17  2  0  0  0
 18 19  2  0  0  0
 18 29  1  0  0  0
 19 20  1  0  0  0
 20 21  2  0  0  0
 21 22  1  0  0  0
 21 28  1  0  0  0
 22 23  1  0  0  0
 23 24  1  0  0  0
 24 25  1  0  0  0
 25 26  1  0  0  0
 25 27  1  0  0  0
 28 29  2  0  0  0
M  END
>  <CHROM.0>
-179.10906461,-47.56725918,-104.46094154,176.97858969

>  <CHROM.1>
111.28272211,-138.96433469,74.72978323,-99.68272919,106.25458522,-177.25606113
-14.98002334,171.16405064,-175.85056191,148.83065941,68.71097998,34.80831137
77.79921903,-0.91761080,-1.14915060,-0.77188658

>  <FORMUL>
      OHT    C26 H29 N1 O2

>  <HET>
 OHT  A 600      29

>  <HETNAM>
     OHT 4-HYDROXYTAMOXIFEN

>  <Name>
OHT.pdb

>  <RI>
0

>  <Rbt.Current_Directory>
/home/malgorzata/Desktop/rDOCK_IFD/Wyniki/5_estrogen_receptor/IFD

>  <Rbt.Executable>
rbdock ($Id: //depot/dev/client3/rdock/2013.1/src/exe/rbdock.cxx#4 $)

>  <Rbt.Library>
libRbt.so (2013.1, Build901 2013/11/27)

>  <Rbt.Parameter_File>
/home/malgorzata/Desktop/rDock_2013.1_src/data/scripts/dock.prm

>  <Rbt.Receptor>
cavity.prm

>  <SCORE>
-5.81196

>  <SCORE.INTER>
-0.433562

>  <SCORE.INTER.CONST>
1

>  <SCORE.INTER.POLAR>
0

>  <SCORE.INTER.REPUL>
0

>  <SCORE.INTER.ROT>
9

>  <SCORE.INTER.VDW>
-14.8336

>  <SCORE.INTER.norm>
-0.0149504

>  <SCORE.INTRA>
-5.60993

>  <SCORE.INTRA.DIHEDRAL>
-6.58716

>  <SCORE.INTRA.DIHEDRAL.0>
14.7815

>  <SCORE.INTRA.POLAR>
0

>  <SCORE.INTRA.POLAR.0>
0

>  <SCORE.INTRA.REPUL>
0

>  <SCORE.INTRA.REPUL.0>
0

>  <SCORE.INTRA.VDW>
-2.31635

>  <SCORE.INTRA.VDW.0>
-0.0652974

>  <SCORE.INTRA.norm>
-0.193446

>  <SCORE.RESTR>
0

>  <SCORE.RESTR.CAVITY>
0

>  <SCORE.RESTR.norm>
0

>  <SCORE.SYSTEM>
0.231533

>  <SCORE.SYSTEM.CONST>
0

>  <SCORE.SYSTEM.DIHEDRAL>
1.53902

>  <SCORE.SYSTEM.VDW>
-0.537977

>  <SCORE.SYSTEM.norm>
0.0079839

>  <SCORE.heavy>
29

>  <SCORE.norm>
-0.200412

$$$$
OHT.pdb
  rDOCK(R)          3D
libRbt.so/2013.1/901 2013/11/27
 30 32  0  0  0  0  0  0  0  0999 V2000
   71.6502   38.0066   72.9863 C   0  0  0  0  0  0
   70.1893   38.3365   72.8481 C   0  0  0  0  0  0
   69.4518   37.3247   71.9958 C   0  0  0  0  0  0
   69.4129   37.6783   70.5440 C   0  0  0  0  0  0
   68.4618   38.5976   70.0526 C   0  0  0  0  0  0
   68.4585   38.9636   68.7062 C   0  0  0  0  0  0
   69.3797   38.4356   67.8231 C   0  0  0  0  0  0
   70.3126   37.5376   68.2845 C   0  0  0  0  0  0
   70.3276   37.1641   69.6331 C   0  0  0  0  0  0
   68.8804   36.1991   72.5167 C   0  0  0  0  0  0
   68.0284   35.2428   71.7187 C   0  0  0  0  0  0
   68.5976   34.1436   71.0031 C   0  0  0  0  0  0
   67.7889   33.3010   70.2268 C   0  0  0  0  0  0
   66.4048   33.5486   70.1584 C   0  0  0  0  0  0
   65.6429   32.7281   69.3814 O   0  0  0  0  0  0
   65.8307   34.6305   70.8639 C   0  0  0  0  0  0
   66.6494   35.4541   71.6263 C   0  0  0  0  0  0
   69.0301   35.8183   73.9244 C   0  0  0  0  0  0
   70.2498   35.3841   74.4380 C   0  0  0  0  0  0
   70.4143   35.0487   75.7524 C   0  0  0  0  0  0
   69.3374   35.1415   76.6193 C   0  0  0  0  0  0
   69.4246   34.8614   77.9529 O   0  0  0  0  0  0
   70.5246   35.3545   78.7118 C   0  0  0  0  0  0
   70.3476   34.8314   80.1116 C   0  0  0  0  0  0
   71.3627   35.2756   81.0269 N   0  0  0  0  0  0
   70.9999   36.5424   81.6639 C   0  0  0  0  0  0
   71.5473   34.2713   82.0807 C   0  0  0  0  0  0
   68.0902   35.5733   76.1355 C   0  0  0  0  0  0
   67.9523   35.9026   74.8162 C   0  0  0  0  0  0
   64.7095   32.8107   69.3876 H   0  0  0  0  0  0
  1  2  1  0  0  0
  2  3  1  0  0  0
  3  4  1  0  0  0
  3 10  1  0  0  0
  4  5  2  0  0  0
  4  9  1  0  0  0
  5  6  1  0  0  0
  6  7  2  0  0  0
  7  8  1  0  0  0
  8  9  2  0  0  0
 10 11  1  0  0  0
 10 18  1  0  0  0
 11 12  2  0  0  0
 11 17  1  0  0  0
 12 13  1  0  0  0
 13 14  2  0  0  0
 14 15  1  0  0  0
 14 16  1  0  0  0
 15 30  1  0  0  0
 16 17  2  0  0  0
 18 19  2  0  0  0
 18 29  1  0  0  0
 19 20  1  0  0  0
 20 21  2  0  0  0
 21 22  1  0  0  0
 21 28  1  0  0  0
 22 23  1  0  0  0
 23 24  1  0  0  0
 24 25  1  0  0  0
 25 26  1  0  0  0
 25 27  1  0  0  0
 28 29  2  0  0  0
M  END
>  <CHROM.0>
-86.79063692,179.70140027,145.96871988,5.07096654

>  <CHROM.1>
-90.99674702,-81.55956407,173.89104680,88.59341722,-69.54838563,173.49366162
44.56352009,-177.94764213,-178.16249946,88.96337231,69.15269524,35.87808710
73.70593233,-1.92891307,0.86572458,1.94984094

>  <FORMUL>
      OHT    C26 H29 N1 O2

>  <HET>
 OHT  A 600      29

>  <HETNAM>
     OHT 4-HYDROXYTAMOXIFEN

>  <Name>
OHT.pdb

>  <RI>
0

>  <Rbt.Current_Directory>
/home/malgorzata/Desktop/rDOCK_IFD/Wyniki/5_estrogen_receptor/IFD

>  <Rbt.Executable>
rbdock ($Id: //depot/dev/client3/rdock/2013.1/src/exe/rbdock.cxx#4 $)

>  <Rbt.Library>
libRbt.so (2013.1, Build901 2013/11/27)

>  <Rbt.Parameter_File>
/home/malgorzata/Desktop/rDock_2013.1_src/data/scripts/dock.prm

>  <Rbt.Receptor>
cavity.prm

>  <SCORE>
-7.32186

>  <SCORE.INTER>
-1.18833

>  <SCORE.INTER.CONST>
1

>  <SCORE.INTER.POLAR>
0

>  <SCORE.INTER.REPUL>
0

>  <SCORE.INTER.ROT>
9

>  <SCORE.INTER.VDW>
-15.5883

>  <SCORE.INTER.norm>
-0.0409768

>  <SCORE.INTRA>
-5.51048

>  <SCORE.INTRA.DIHEDRAL>
-4.02437

>  <SCORE.INTRA.DIHEDRAL.0>
14.7815

>  <SCORE.INTRA.POLAR>
0

>  <SCORE.INTRA.POLAR.0>
0

>  <SCORE.INTRA.REPUL>
0

>  <SCORE.INTRA.REPUL.0>
0

>  <SCORE.INTRA.VDW>
-3.49829

>  <SCORE.INTRA.VDW.0>
-0.0652974

>  <SCORE.INTRA.norm>
-0.190016

>  <SCORE.RESTR>
0

>  <SCORE.RESTR.CAVITY>
0

>  <SCORE.RESTR.norm>
0

>  <SCORE.SYSTEM>
-0.623055

>  <SCORE.SYSTEM.CONST>
0

>  <SCORE.SYSTEM.DIHEDRAL>
0.802124

>  <SCORE.SYSTEM.VDW>
-1.02412

>  <SCORE.SYSTEM.norm>
-0.0214846

>  <SCORE.heavy>
29

>  <SCORE.norm>
-0.252478

$$$$
OHT.pdb
  rDOCK(R)          3D
libRbt.so/2013.1/901 2013/11/27
 30 32  0  0  0  0  0  0  0  0999 V2000
   65.5981   35.1415   70.2335 C   0  0  0  0  0  0
   66.7565   34.2334   69.9244 C   0  0  0  0  0  0
   67.6508   34.0159   71.1274 C   0  0  0  0  0  0
   67.7085   32.5932   71.5824 C   0  0  0  0  0  0
   68.9413   31.9105   71.6551 C   0  0  0  0  0  0
   68.9990   30.5986   72.1266 C   0  0  0  0  0  0
   67.8560   29.9363   72.5293 C   0  0  0  0  0  0
   66.6464   30.5859   72.4638 C   0  0  0  0  0  0
   66.5755   31.9025   71.9947 C   0  0  0  0  0  0
   68.3345   35.0323   71.7308 C   0  0  0  0  0  0
   68.9331   36.2007   70.9865 C   0  0  0  0  0  0
   68.2084   37.4166   70.7844 C   0  0  0  0  0  0
   68.7687   38.4674   70.0439 C   0  0  0  0  0  0
   70.0575   38.3133   69.4989 C   0  0  0  0  0  0
   70.5723   39.3408   68.7662 O   0  0  0  0  0  0
   70.7843   37.1169   69.6947 C   0  0  0  0  0  0
   70.2108   36.0875   70.4303 C   0  0  0  0  0  0
   68.5684   35.0751   73.1774 C   0  0  0  0  0  0
   69.8053   34.7475   73.7275 C   0  0  0  0  0  0
   70.0489   34.8055   75.0708 C   0  0  0  0  0  0
   69.0382   35.2058   75.9300 C   0  0  0  0  0  0
   69.2080   35.3262   77.2796 O   0  0  0  0  0  0
   68.7280   36.4846   77.9553 C   0  0  0  0  0  0
   69.0341   36.2861   79.4152 C   0  0  0  0  0  0
   68.4074   35.1244   79.9840 N   0  0  0  0  0  0
   69.3262   33.9865   80.0392 C   0  0  0  0  0  0
   67.9686   35.4235   81.3520 C   0  0  0  0  0  0
   67.7759   35.5412   75.4105 C   0  0  0  0  0  0
   67.5583   35.4747   74.0629 C   0  0  0  0  0  0
   71.4021   39.2439   68.3419 H   0  0  0  0  0  0
  1  2  1  0  0  0
  2  3  1  0  0  0
  3  4  1  0  0  0
  3 10  1  0  0  0
  4  5  2  0  0  0
  4  9  1  0  0  0
  5  6  1  0  0  0
  6  7  2  0  0  0
  7  8  1  0  0  0
  8  9  2  0  0  0
 10 11  1  0  0  0
 10 18  1  0  0  0
 11 12  2  0  0  0
 11 17  1  0  0  0
 12 13  1  0  0  0
 13 14  2  0  0  0
 14 15  1  0  0  0
 14 16  1  0  0  0
 15 30  1  0  0  0
 16 17  2  0  0  0
 18 19  2  0  0  0
 18 29  1  0  0  0
 19 20  1  0  0  0
 20 21  2  0  0  0
 21 22  1  0  0  0
 21 28  1  0  0  0
 22 23  1  0  0  0
 23 24  1  0  0  0
 24 25  1  0  0  0
 25 26  1  0  0  0
 25 27  1  0  0  0
 28 29  2  0  0  0
M  END
>  <CHROM.0>
-74.54932062,178.77764576,-118.74376311,4.59918522

>  <CHROM.1>
117.39339404,122.35060781,-35.48768731,91.88467777,103.05526031,-175.76356270
133.78796061,178.37069738,-60.15485726,97.99182111,68.56028102,34.95593820
73.50300962,1.55409438,-1.24881336,-1.49573407

>  <FORMUL>
      OHT    C26 H29 N1 O2

>  <HET>
 OHT  A 600      29

>  <HETNAM>
     OHT 4-HYDROXYTAMOXIFEN

>  <Name>
OHT.pdb

>  <RI>
0

>  <Rbt.Current_Directory>
/home/malgorzata/Desktop/rDOCK_IFD/Wyniki/5_estrogen_receptor/IFD

>  <Rbt.Executable>
rbdock ($Id: //depot/dev/client3/rdock/2013.1/src/exe/rbdock.cxx#4 $)

>  <Rbt.Library>
libRbt.so (2013.1, Build901 2013/11/27)

>  <Rbt.Parameter_File>
/home/malgorzata/Desktop/rDock_2013.1_src/data/scripts/dock.prm

>  <Rbt.Receptor>
cavity.prm

>  <SCORE>
-9.07471

>  <SCORE.INTER>
-3.40054

>  <SCORE.INTER.CONST>
1

>  <SCORE.INTER.POLAR>
-0.32403

>  <SCORE.INTER.REPUL>
0

>  <SCORE.INTER.ROT>
9

>  <SCORE.INTER.VDW>
-16.6988

>  <SCORE.INTER.norm>
-0.11726

>  <SCORE.INTRA>
-5.40241

>  <SCORE.INTRA.DIHEDRAL>
-4.4778

>  <SCORE.INTRA.DIHEDRAL.0>
14.7815

>  <SCORE.INTRA.POLAR>
0

>  <SCORE.INTRA.POLAR.0>
0

>  <SCORE.INTRA.REPUL>
0

>  <SCORE.INTRA.REPUL.0>
0

>  <SCORE.INTRA.VDW>
-3.16352

>  <SCORE.INTRA.VDW.0>
-0.0652974

>  <SCORE.INTRA.norm>
-0.18629

>  <SCORE.RESTR>
0.0014426

>  <SCORE.RESTR.CAVITY>
0.0014426

>  <SCORE.RESTR.norm>
4.97449e-05

>  <SCORE.SYSTEM>
-0.2732

>  <SCORE.SYSTEM.CONST>
0

>  <SCORE.SYSTEM.DIHEDRAL>
0.822003

>  <SCORE.SYSTEM.VDW>
-0.684202

>  <SCORE.SYSTEM.norm>
-0.00942069

>  <SCORE.heavy>
29

>  <SCORE.norm>
-0.312921

$$$$
OHT.pdb
  rDOCK(R)          3D
libRbt.so/2013.1/901 2013/11/27
 30 32  0  0  0  0  0  0  0  0999 V2000
   65.5289   35.0609   70.0812 C   0  0  0  0  0  0
   65.9760   36.0366   71.1349 C   0  0  0  0  0  0
   67.3877   35.7606   71.6091 C   0  0  0  0  0  0
   68.4235   36.5950   70.9268 C   0  0  0  0  0  0
   69.1109   37.6064   71.6308 C   0  0  0  0  0  0
   70.1117   38.3511   71.0058 C   0  0  0  0  0  0
   70.4514   38.1209   69.6871 C   0  0  0  0  0  0
   69.7908   37.1404   68.9859 C   0  0  0  0  0  0
   68.7867   36.3852   69.6021 C   0  0  0  0  0  0
   67.6745   34.8339   72.5701 C   0  0  0  0  0  0
   67.5107   33.3460   72.3784 C   0  0  0  0  0  0
   66.2340   32.7097   72.4755 C   0  0  0  0  0  0
   66.1176   31.3183   72.3449 C   0  0  0  0  0  0
   67.2750   30.5503   72.1161 C   0  0  0  0  0  0
   67.1388   29.1981   72.0128 O   0  0  0  0  0  0
   68.5419   31.1688   72.0153 C   0  0  0  0  0  0
   68.6358   32.5484   72.1489 C   0  0  0  0  0  0
   68.1598   35.2047   73.9029 C   0  0  0  0  0  0
   67.2853   35.5738   74.9222 C   0  0  0  0  0  0
   67.7173   35.8986   76.1772 C   0  0  0  0  0  0
   69.0728   35.8614   76.4622 C   0  0  0  0  0  0
   69.5849   36.1350   77.6981 O   0  0  0  0  0  0
   69.0348   37.1936   78.4764 C   0  0  0  0  0  0
   69.7409   37.1598   79.8048 C   0  0  0  0  0  0
   69.5406   35.9377   80.5343 N   0  0  0  0  0  0
   70.7202   35.5792   81.3232 C   0  0  0  0  0  0
   68.4074   36.0945   81.4533 C   0  0  0  0  0  0
   69.9851   35.4962   75.4570 C   0  0  0  0  0  0
   69.5269   35.1760   74.2099 C   0  0  0  0  0  0
   66.2850   28.8122   72.0080 H   0  0  0  0  0  0
  1  2  1  0  0  0
  2  3  1  0  0  0
  3  4  1  0  0  0
  3 10  1  0  0  0
  4  5  2  0  0  0
  4  9  1  0  0  0
  5  6  1  0  0  0
  6  7  2  0  0  0
  7  8  1  0  0  0
  8  9  2  0  0  0
 10 11  1  0  0  0
 10 18  1  0  0  0
 11 12  2  0  0  0
 11 17  1  0  0  0
 12 13  1  0  0  0
 13 14  2  0  0  0
 14 15  1  0  0  0
 14 16  1  0  0  0
 15 30  1  0  0  0
 16 17  2  0  0  0
 18 19  2  0  0  0
 18 29  1  0  0  0
 19 20  1  0  0  0
 20 21  2  0  0  0
 21 22  1  0  0  0
 21 28  1  0  0  0
 22 23  1  0  0  0
 23 24  1  0  0  0
 24 25  1  0  0  0
 25 26  1  0  0  0
 25 27  1  0  0  0
 28 29  2  0  0  0
M  END
>  <CHROM.0>
165.28284502,-47.70631742,-77.13479356,173.35033736

>  <CHROM.1>
96.54027684,110.43582533,68.00512006,-79.28273781,83.70955941,6.11884561
-39.64719631,175.67872648,-61.78514075,146.67261784,68.39261244,35.08411619
74.01545196,-2.10615786,1.20427341,1.86846914

>  <FORMUL>
      OHT    C26 H29 N1 O2

>  <HET>
 OHT  A 600      29

>  <HETNAM>
     OHT 4-HYDROXYTAMOXIFEN

>  <Name>
OHT.pdb

>  <RI>
0

>  <Rbt.Current_Directory>
/home/malgorzata/Desktop/rDOCK_IFD/Wyniki/5_estrogen_receptor/IFD

>  <Rbt.Executable>
rbdock ($Id: //depot/dev/client3/rdock/2013.1/src/exe/rbdock.cxx#4 $)

>  <Rbt.Library>
libRbt.so (2013.1, Build901 2013/11/27)

>  <Rbt.Parameter_File>
/home/malgorzata/Desktop/rDock_2013.1_src/data/scripts/dock.prm

>  <Rbt.Receptor>
cavity.prm

>  <SCORE>
-8.22059

>  <SCORE.INTER>
-2.40153

>  <SCORE.INTER.CONST>
1

>  <SCORE.INTER.POLAR>
0

>  <SCORE.INTER.REPUL>
0

>  <SCORE.INTER.ROT>
9

>  <SCORE.INTER.VDW>
-16.8015

>  <SCORE.INTER.norm>
-0.0828114

>  <SCORE.INTRA>
-6.12423

>  <SCORE.INTRA.DIHEDRAL>
-4.51106

>  <SCORE.INTRA.DIHEDRAL.0>
14.7815

>  <SCORE.INTRA.POLAR>
0

>  <SCORE.INTRA.POLAR.0>
0

>  <SCORE.INTRA.REPUL>
0

>  <SCORE.INTRA.REPUL.0>
0

>  <SCORE.INTRA.VDW>
-3.8687

>  <SCORE.INTRA.VDW.0>
-0.0652974

>  <SCORE.INTRA.norm>
-0.21118

>  <SCORE.RESTR>
0

>  <SCORE.RESTR.CAVITY>
0

>  <SCORE.RESTR.norm>
0

>  <SCORE.SYSTEM>
0.305173

>  <SCORE.SYSTEM.CONST>
0

>  <SCORE.SYSTEM.DIHEDRAL>
1.55667

>  <SCORE.SYSTEM.REPUL>
0.00205411

>  <SCORE.SYSTEM.VDW>
-0.483433

>  <SCORE.SYSTEM.norm>
0.0105232

>  <SCORE.heavy>
29

>  <SCORE.norm>
-0.283469

$$$$
OHT.pdb
  rDOCK(R)          3D
libRbt.so/2013.1/901 2013/11/27
 30 32  0  0  0  0  0  0  0  0999 V2000
   65.7310   34.2124   81.9847 C   0  0  0  0  0  0
   67.1422   33.9266   82.4195 C   0  0  0  0  0  0
   68.0727   33.7170   81.2429 C   0  0  0  0  0  0
   68.4992   32.2958   81.0613 C   0  0  0  0  0  0
   67.6017   31.3351   80.5490 C   0  0  0  0  0  0
   68.0162   30.0203   80.3342 C   0  0  0  0  0  0
   69.3088   29.6263   80.6192 C   0  0  0  0  0  0
   70.1960   30.5489   81.1203 C   0  0  0  0  0  0
   69.7930   31.8712   81.3382 C   0  0  0  0  0  0
   68.4769   34.7384   80.4318 C   0  0  0  0  0  0
   68.8233   36.1203   80.9296 C   0  0  0  0  0  0
   70.1487   36.6472   80.8294 C   0  0  0  0  0  0
   70.4549   37.9138   81.3475 C   0  0  0  0  0  0
   69.4404   38.6653   81.9700 C   0  0  0  0  0  0
   69.7672   39.8848   82.4835 O   0  0  0  0  0  0
   68.1259   38.1558   82.0721 C   0  0  0  0  0  0
   67.8435   36.8984   81.5536 C   0  0  0  0  0  0
   68.5979   34.5901   78.9783 C   0  0  0  0  0  0
   67.9852   35.4802   78.0995 C   0  0  0  0  0  0
   68.1072   35.3723   76.7428 C   0  0  0  0  0  0
   68.8678   34.3456   76.2066 C   0  0  0  0  0  0
   69.0712   34.1875   74.8656 O   0  0  0  0  0  0
   68.0951   33.5180   74.0732 C   0  0  0  0  0  0
   66.9417   34.4720   73.9185 C   0  0  0  0  0  0
   65.9820   34.0624   72.9301 N   0  0  0  0  0  0
   64.9079   33.2610   73.5186 C   0  0  0  0  0  0
   65.3794   35.2480   72.3099 C   0  0  0  0  0  0
   69.4984   33.4266   77.0632 C   0  0  0  0  0  0
   69.3603   33.5569   78.4166 C   0  0  0  0  0  0
   70.6426   40.2085   82.4010 H   0  0  0  0  0  0
  1  2  1  0  0  0
  2  3  1  0  0  0
  3  4  1  0  0  0
  3 10  1  0  0  0
  4  5  2  0  0  0
  4  9  1  0  0  0
  5  6  1  0  0  0
  6  7  2  0  0  0
  7  8  1  0  0  0
  8  9  2  0  0  0
 10 11  1  0  0  0
 10 18  1  0  0  0
 11 12  2  0  0  0
 11 17  1  0  0  0
 12 13  1  0  0  0
 13 14  2  0  0  0
 14 15  1  0  0  0
 14 16  1  0  0  0
 15 30  1  0  0  0
 16 17  2  0  0  0
 18 19  2  0  0  0
 18 29  1  0  0  0
 19 20  1  0  0  0
 20 21  2  0  0  0
 21 22  1  0  0  0
 21 28  1  0  0  0
 22 23  1  0  0  0
 23 24  1  0  0  0
 24 25  1  0  0  0
 25 26  1  0  0  0
 25 27  1  0  0  0
 28 29  2  0  0  0
M  END
>  <CHROM.0>
-72.48765641,-178.73529921,116.36006357,3.70450197

>  <CHROM.1>
-107.96226505,73.85951020,39.09991192,114.98867290,127.86257988,1.25855673
-83.21339328,74.04099212,168.35051821,91.71351271,68.24173149,34.45498385
78.85995378,-0.10697346,1.31669087,3.00744968

>  <FORMUL>
      OHT    C26 H29 N1 O2

>  <HET>
 OHT  A 600      29

>  <HETNAM>
     OHT 4-HYDROXYTAMOXIFEN

>  <Name>
OHT.pdb

>  <RI>
0

>  <Rbt.Current_Directory>
/home/malgorzata/Desktop/rDOCK_IFD/Wyniki/5_estrogen_receptor/IFD

>  <Rbt.Executable>
rbdock ($Id: //depot/dev/client3/rdock/2013.1/src/exe/rbdock.cxx#4 $)

>  <Rbt.Library>
libRbt.so (2013.1, Build901 2013/11/27)

>  <Rbt.Parameter_File>
/home/malgorzata/Desktop/rDock_2013.1_src/data/scripts/dock.prm

>  <Rbt.Receptor>
cavity.prm

>  <SCORE>
-4.43584

>  <SCORE.INTER>
-0.120906

>  <SCORE.INTER.CONST>
1

>  <SCORE.INTER.POLAR>
0

>  <SCORE.INTER.REPUL>
0

>  <SCORE.INTER.ROT>
9

>  <SCORE.INTER.VDW>
-14.5209

>  <SCORE.INTER.norm>
-0.00416918

>  <SCORE.INTRA>
-3.69663

>  <SCORE.INTRA.DIHEDRAL>
-0.997676

>  <SCORE.INTRA.DIHEDRAL.0>
14.7815

>  <SCORE.INTRA.POLAR>
0

>  <SCORE.INTRA.POLAR.0>
0

>  <SCORE.INTRA.REPUL>
0

>  <SCORE.INTRA.REPUL.0>
0

>  <SCORE.INTRA.VDW>
-3.1978

>  <SCORE.INTRA.VDW.0>
-0.0652974

>  <SCORE.INTRA.norm>
-0.12747

>  <SCORE.RESTR>
0

>  <SCORE.RESTR.CAVITY>
0

>  <SCORE.RESTR.norm>
0

>  <SCORE.SYSTEM>
-0.618303

>  <SCORE.SYSTEM.CONST>
0

>  <SCORE.SYSTEM.DIHEDRAL>
0.817112

>  <SCORE.SYSTEM.VDW>
-1.02686

>  <SCORE.SYSTEM.norm>
-0.0213208

>  <SCORE.heavy>
29

>  <SCORE.norm>
-0.15296

$$$$
OHT.pdb
  rDOCK(R)          3D
libRbt.so/2013.1/901 2013/11/27
 30 32  0  0  0  0  0  0  0  0999 V2000
   66.0576   36.0709   70.1952 C   0  0  0  0  0  0
   65.6314   36.0027   71.6360 C   0  0  0  0  0  0
   66.4733   35.0312   72.4369 C   0  0  0  0  0  0
   65.8334   33.6928   72.6204 C   0  0  0  0  0  0
   66.4928   32.5168   72.2041 C   0  0  0  0  0  0
   65.9156   31.2652   72.4206 C   0  0  0  0  0  0
   64.6881   31.1457   73.0422 C   0  0  0  0  0  0
   64.0311   32.2811   73.4530 C   0  0  0  0  0  0
   64.6005   33.5421   73.2434 C   0  0  0  0  0  0
   67.7001   35.3593   72.9390 C   0  0  0  0  0  0
   68.8120   35.9608   72.1149 C   0  0  0  0  0  0
   68.8205   37.3450   71.7567 C   0  0  0  0  0  0
   69.8388   37.8668   70.9460 C   0  0  0  0  0  0
   70.8577   37.0110   70.4862 C   0  0  0  0  0  0
   71.8251   37.5373   69.6832 O   0  0  0  0  0  0
   70.8611   35.6416   70.8364 C   0  0  0  0  0  0
   69.8425   35.1442   71.6395 C   0  0  0  0  0  0
   68.0619   35.1391   74.3425 C   0  0  0  0  0  0
   67.5856   35.9650   75.3579 C   0  0  0  0  0  0
   67.8919   35.7605   76.6738 C   0  0  0  0  0  0
   68.7034   34.6942   77.0268 C   0  0  0  0  0  0
   69.0278   34.3973   78.3195 O   0  0  0  0  0  0
   68.1958   34.8512   79.3829 C   0  0  0  0  0  0
   68.7663   34.2728   80.6495 C   0  0  0  0  0  0
   68.0019   34.5897   81.8247 N   0  0  0  0  0  0
   66.8846   33.6625   82.0095 C   0  0  0  0  0  0
   68.8645   34.5068   83.0088 C   0  0  0  0  0  0
   69.2048   33.8413   76.0282 C   0  0  0  0  0  0
   68.8834   34.0680   74.7194 C   0  0  0  0  0  0
   71.8087   38.4484   69.4653 H   0  0  0  0  0  0
  1  2  1  0  0  0
  2  3  1  0  0  0
  3  4  1  0  0  0
  3 10  1  0  0  0
  4  5  2  0  0  0
  4  9  1  0  0  0
  5  6  1  0  0  0
  6  7  2  0  0  0
  7  8  1  0  0  0
  8  9  2  0  0  0
 10 11  1  0  0  0
 10 18  1  0  0  0
 11 12  2  0  0  0
 11 17  1  0  0  0
 12 13  1  0  0  0
 13 14  2  0  0  0
 14 15  1  0  0  0
 14 16  1  0  0  0
 15 30  1  0  0  0
 16 17  2  0  0  0
 18 19  2  0  0  0
 18 29  1  0  0  0
 19 20  1  0  0  0
 20 21  2  0  0  0
 21 22  1  0  0  0
 21 28  1  0  0  0
 22 23  1  0  0  0
 23 24  1  0  0  0
 24 25  1  0  0  0
 25 26  1  0  0  0
 25 27  1  0  0  0
 28 29  2  0  0  0
M  END
>  <CHROM.0>
-68.21747999,-178.50978761,131.51999107,4.93527210

>  <CHROM.1>
-98.66907355,123.39946861,-51.48338183,77.91690255,-75.58973150,1.14704088
22.47323990,175.74279946,-177.40979638,84.06032786,67.90427446,34.82012581
74.61158291,1.52810999,-0.63761935,-1.44311945

>  <FORMUL>
      OHT    C26 H29 N1 O2

>  <HET>
 OHT  A 600      29

>  <HETNAM>
     OHT 4-HYDROXYTAMOXIFEN

>  <Name>
OHT.pdb

>  <RI>
0

>  <Rbt.Current_Directory>
/home/malgorzata/Desktop/rDOCK_IFD/Wyniki/5_estrogen_receptor/IFD

>  <Rbt.Executable>
rbdock ($Id: //depot/dev/client3/rdock/2013.1/src/exe/rbdock.cxx#4 $)

>  <Rbt.Library>
libRbt.so (2013.1, Build901 2013/11/27)

>  <Rbt.Parameter_File>
/home/malgorzata/Desktop/rDock_2013.1_src/data/scripts/dock.prm

>  <Rbt.Receptor>
cavity.prm

>  <SCORE>
-8.76002

>  <SCORE.INTER>
-2.19468

>  <SCORE.INTER.CONST>
1

>  <SCORE.INTER.POLAR>
0

>  <SCORE.INTER.REPUL>
0

>  <SCORE.INTER.ROT>
9

>  <SCORE.INTER.VDW>
-16.5947

>  <SCORE.INTER.norm>
-0.0756785

>  <SCORE.INTRA>
-5.95867

>  <SCORE.INTRA.DIHEDRAL>
-6.45339

>  <SCORE.INTRA.DIHEDRAL.0>
14.7815

>  <SCORE.INTRA.POLAR>
0

>  <SCORE.INTRA.POLAR.0>
0

>  <SCORE.INTRA.REPUL>
0

>  <SCORE.INTRA.REPUL.0>
0

>  <SCORE.INTRA.VDW>
-2.73198

>  <SCORE.INTRA.VDW.0>
-0.0652974

>  <SCORE.INTRA.norm>
-0.205471

>  <SCORE.RESTR>
0

>  <SCORE.RESTR.CAVITY>
0

>  <SCORE.RESTR.norm>
0

>  <SCORE.SYSTEM>
-0.606677

>  <SCORE.SYSTEM.CONST>
0

>  <SCORE.SYSTEM.DIHEDRAL>
0.828573

>  <SCORE.SYSTEM.VDW>
-1.02096

>  <SCORE.SYSTEM.norm>
-0.0209199

>  <SCORE.heavy>
29

>  <SCORE.norm>
-0.30207

$$$$
OHT.pdb
  rDOCK(R)          3D
libRbt.so/2013.1/901 2013/11/27
 30 32  0  0  0  0  0  0  0  0999 V2000
   70.5048   32.4608   72.9446 C   0  0  0  0  0  0
   70.6566   33.9547   72.8590 C   0  0  0  0  0  0
   69.3247   34.6714   72.9399 C   0  0  0  0  0  0
   69.1745   35.7725   71.9402 C   0  0  0  0  0  0
   69.4897   37.1043   72.2837 C   0  0  0  0  0  0
   69.3957   38.1230   71.3350 C   0  0  0  0  0  0
   68.9905   37.8560   70.0421 C   0  0  0  0  0  0
   68.6781   36.5644   69.6905 C   0  0  0  0  0  0
   68.7704   35.5334   70.6324 C   0  0  0  0  0  0
   68.3601   34.3340   73.8456 C   0  0  0  0  0  0
   67.1800   33.4492   73.5263 C   0  0  0  0  0  0
   65.8335   33.8923   73.7131 C   0  0  0  0  0  0
   64.7564   33.0313   73.4582 C   0  0  0  0  0  0
   65.0144   31.7205   73.0144 C   0  0  0  0  0  0
   63.9518   30.8963   72.7927 O   0  0  0  0  0  0
   66.3414   31.2726   72.8233 C   0  0  0  0  0  0
   67.3944   32.1407   73.0827 C   0  0  0  0  0  0
   68.3726   34.8206   75.2285 C   0  0  0  0  0  0
   68.8487   34.0348   76.2752 C   0  0  0  0  0  0
   68.8910   34.4805   77.5663 C   0  0  0  0  0  0
   68.4497   35.7606   77.8601 C   0  0  0  0  0  0
   68.4916   36.2964   79.1154 O   0  0  0  0  0  0
   68.6290   35.4431   80.2476 C   0  0  0  0  0  0
   68.6347   36.3363   81.4586 C   0  0  0  0  0  0
   67.3921   37.0260   81.6734 N   0  0  0  0  0  0
   66.6203   36.4239   82.7615 C   0  0  0  0  0  0
   67.6614   38.4250   82.0247 C   0  0  0  0  0  0
   67.9597   36.5811   76.8292 C   0  0  0  0  0  0
   67.9280   36.1111   75.5462 C   0  0  0  0  0  0
   64.0506   29.9692   72.8858 H   0  0  0  0  0  0
  1  2  1  0  0  0
  2  3  1  0  0  0
  3  4  1  0  0  0
  3 10  1  0  0  0
  4  5  2  0  0  0
  4  9  1  0  0  0
  5  6  1  0  0  0
  6  7  2  0  0  0
  7  8  1  0  0  0
  8  9  2  0  0  0
 10 11  1  0  0  0
 10 18  1  0  0  0
 11 12  2  0  0  0
 11 17  1  0  0  0
 12 13  1  0  0  0
 13 14  2  0  0  0
 14 15  1  0  0  0
 14 16  1  0  0  0
 15 30  1  0  0  0
 16 17  2  0  0  0
 18 19  2  0  0  0
 18 29  1  0  0  0
 19 20  1  0  0  0
 20 21  2  0  0  0
 21 22  1  0  0  0
 21 28  1  0  0  0
 22 23  1  0  0  0
 23 24  1  0  0  0
 24 25  1  0  0  0
 25 26  1  0  0  0
 25 27  1  0  0  0
 28 29  2  0  0  0
M  END
>  <CHROM.0>
-56.59844749,60.96879602,-152.57351051,179.90943254

>  <CHROM.1>
-135.79538265,-94.26003650,-98.08139123,-122.74966338,-99.16829112,-151.87519791
-18.26419084,-179.73338703,65.33386831,103.84273772,67.96974499,34.97733611
75.20946784,1.56388669,-0.92830136,-1.82005199

>  <FORMUL>
      OHT    C26 H29 N1 O2

>  <HET>
 OHT  A 600      29

>  <HETNAM>
     OHT 4-HYDROXYTAMOXIFEN

>  <Name>
OHT.pdb

>  <RI>
0

>  <Rbt.Current_Directory>
/home/malgorzata/Desktop/rDOCK_IFD/Wyniki/5_estrogen_receptor/IFD

>  <Rbt.Executable>
rbdock ($Id: //depot/dev/client3/rdock/2013.1/src/exe/rbdock.cxx#4 $)

>  <Rbt.Library>
libRbt.so (2013.1, Build901 2013/11/27)

>  <Rbt.Parameter_File>
/home/malgorzata/Desktop/rDock_2013.1_src/data/scripts/dock.prm

>  <Rbt.Receptor>
cavity.prm

>  <SCORE>
-5.48374

>  <SCORE.INTER>
-0.68948

>  <SCORE.INTER.CONST>
1

>  <SCORE.INTER.POLAR>
0

>  <SCORE.INTER.REPUL>
0

>  <SCORE.INTER.ROT>
9

>  <SCORE.INTER.VDW>
-15.0895

>  <SCORE.INTER.norm>
-0.0237752

>  <SCORE.INTRA>
-4.62519

>  <SCORE.INTRA.DIHEDRAL>
-4.45672

>  <SCORE.INTRA.DIHEDRAL.0>
14.7815

>  <SCORE.INTRA.POLAR>
0

>  <SCORE.INTRA.POLAR.0>
0

>  <SCORE.INTRA.REPUL>
0

>  <SCORE.INTRA.REPUL.0>
0

>  <SCORE.INTRA.VDW>
-2.39683

>  <SCORE.INTRA.VDW.0>
-0.0652974

>  <SCORE.INTRA.norm>
-0.159489

>  <SCORE.RESTR>
0

>  <SCORE.RESTR.CAVITY>
0

>  <SCORE.RESTR.norm>
0

>  <SCORE.SYSTEM>
-0.169076

>  <SCORE.SYSTEM.CONST>
0

>  <SCORE.SYSTEM.DIHEDRAL>
0.821822

>  <SCORE.SYSTEM.VDW>
-0.579987

>  <SCORE.SYSTEM.norm>
-0.00583021

>  <SCORE.heavy>
29

>  <SCORE.norm>
-0.189095

$$$$
