REMARK  9 active torsions:
REMARK  status: ('A' for Active; 'I' for Inactive)
REMARK    1  A    between atoms: C3_3  and  O3_4 
REMARK    2  A    between atoms: C7_9  and  C8_10 
REMARK    3  A    between atoms: C11_13  and  O11_14 
REMARK    4  A    between atoms: C15_19  and  C16_20 
REMARK    5  A    between atoms: C16_20  and  C17_22 
REMARK    6  A    between atoms: C20_25  and  O23_28 
REMARK    7  A    between atoms: O23_28  and  C24_29 
REMARK    8  A    between atoms: C24_29  and  C25_30 
REMARK    9  A    between atoms: C25_30  and  N26_31 
ROOT
HETATM    1  C1  RAL A 600      32.097  -2.374  21.954  1.00 31.33     0.016 A 
HETATM    2  C2  RAL A 600      32.132  -3.418  21.065  1.00 30.47     0.037 A 
HETATM    3  C3  RAL A 600      33.034  -4.440  21.169  1.00 31.66     0.067 A 
HETATM    4  C4  RAL A 600      33.949  -4.441  22.228  1.00 33.99     0.056 A 
HETATM    5  C5  RAL A 600      33.888  -3.412  23.135  1.00 33.49     0.019 A 
HETATM    6  S6  RAL A 600      34.848  -3.108  24.446  1.00 33.96    -0.088 SA
HETATM    7  C7  RAL A 600      34.091  -1.694  24.971  1.00 34.48     0.031 A 
HETATM    8  C14 RAL A 600      32.948  -2.351  22.993  1.00 31.87    -0.003 A 
HETATM    9  C15 RAL A 600      33.089  -1.350  24.038  1.00 33.10     0.044 A 
ENDROOT
BRANCH   9  10
HETATM   10  C16 RAL A 600      32.307  -0.211  24.084  1.00 36.94     0.194 C 
HETATM   11  O16 RAL A 600      32.383   0.613  23.164  1.00 40.67    -0.287 OA
BRANCH  10  12
HETATM   12  C17 RAL A 600      31.390   0.079  25.192  1.00 36.96     0.015 A 
HETATM   13  C18 RAL A 600      30.024   0.039  25.003  1.00 34.73     0.018 A 
HETATM   14  C19 RAL A 600      29.133   0.322  26.020  1.00 34.67     0.037 A 
HETATM   15  C20 RAL A 600      29.636   0.686  27.268  1.00 37.20     0.068 A 
HETATM   16  C21 RAL A 600      31.004   0.721  27.471  1.00 40.93     0.037 A 
HETATM   17  C22 RAL A 600      31.874   0.407  26.440  1.00 39.84     0.018 A 
BRANCH  15  18
HETATM   18  O23 RAL A 600      28.960   1.016  28.405  1.00 36.45    -0.349 OA
BRANCH  18  19
HETATM   19  C24 RAL A 600      28.868   0.011  29.403  1.00 38.03     0.206 C 
BRANCH  19  20
HETATM   20  C25 RAL A 600      28.033  -1.141  28.911  1.00 43.08     0.299 C 
BRANCH  20  21
HETATM   21  N26 RAL A 600      27.376  -1.312  27.630  1.00 46.61     0.090 N 
HETATM   22  C27 RAL A 600      25.916  -1.191  27.823  1.00 47.65     0.272 C 
HETATM   23  C28 RAL A 600      25.111  -1.204  26.509  1.00 48.95     0.030 C 
HETATM   24  C29 RAL A 600      25.364  -2.569  25.848  1.00 50.06     0.003 C 
HETATM   25  C30 RAL A 600      26.887  -2.545  25.511  1.00 50.91     0.030 C 
HETATM   26  C31 RAL A 600      27.642  -2.538  26.851  1.00 50.67     0.272 C 
ENDBRANCH  20  21
ENDBRANCH  19  20
ENDBRANCH  18  19
ENDBRANCH  15  18
ENDBRANCH  10  12
ENDBRANCH   9  10
BRANCH   7  27
HETATM   27  C8  RAL A 600      34.579  -0.871  26.114  1.00 35.62    -0.018 A 
HETATM   28  C9  RAL A 600      34.434  -1.448  27.360  1.00 35.20     0.015 A 
HETATM   29  C10 RAL A 600      34.946  -0.776  28.459  1.00 38.32     0.037 A 
HETATM   30  C11 RAL A 600      35.552   0.458  28.331  1.00 39.44     0.065 A 
HETATM   31  C12 RAL A 600      35.737   1.011  27.081  1.00 36.17     0.037 A 
HETATM   32  C13 RAL A 600      35.235   0.323  25.984  1.00 34.51     0.015 A 
BRANCH  30  33
HETATM   33  O11 RAL A 600      36.040   1.056  29.495  1.00 46.17    -0.361 OA
ATOM     34  H11 RAL A 600      36.231   0.487  30.231  1.00  0.00     0.217 HD
ENDBRANCH  30  33
ENDBRANCH   7  27
BRANCH   3  35
HETATM   35  O3  RAL A 600      32.945  -5.440  20.232  1.00 32.81    -0.361 OA
ATOM     36  H3  RAL A 600      32.158  -5.457  19.699  1.00  0.00     0.217 HD
ENDBRANCH   3  35
TORSDOF 9
