REMARK  9 active torsions:
REMARK  status: ('A' for Active; 'I' for Inactive)
REMARK    1  A    between atoms: C3_3  and  O3_4 
REMARK    2  A    between atoms: C7_9  and  C8_10 
REMARK    3  A    between atoms: C11_13  and  O11_14 
REMARK    4  A    between atoms: C15_19  and  C16_20 
REMARK    5  A    between atoms: C16_20  and  C17_22 
REMARK    6  A    between atoms: C20_25  and  O23_28 
REMARK    7  A    between atoms: O23_28  and  C24_29 
REMARK    8  A    between atoms: C24_29  and  C25_30 
REMARK    9  A    between atoms: C25_30  and  N26_31 
ROOT
HETATM    1  C1  RAL A 600      33.853  -2.881  26.627  1.00 31.33     0.016 A 
HETATM    2  C2  RAL A 600      34.676  -2.689  27.707  1.00 30.47     0.037 A 
HETATM    3  C3  RAL A 600      36.039  -2.701  27.601  1.00 31.66     0.067 A 
HETATM    4  C4  RAL A 600      36.627  -2.898  26.346  1.00 33.99     0.056 A 
HETATM    5  C5  RAL A 600      35.799  -3.056  25.262  1.00 33.49     0.019 A 
HETATM    6  S6  RAL A 600      36.180  -3.352  23.682  1.00 33.96    -0.088 SA
HETATM    7  C7  RAL A 600      34.610  -3.399  23.064  1.00 34.48     0.031 A 
HETATM    8  C14 RAL A 600      34.382  -3.056  25.405  1.00 31.87    -0.003 A 
HETATM    9  C15 RAL A 600      33.703  -3.282  24.138  1.00 33.10     0.044 A 
ENDROOT
BRANCH   9  10
HETATM   10  C16 RAL A 600      32.327  -3.357  24.038  1.00 36.94     0.194 C 
HETATM   11  O16 RAL A 600      31.816  -4.277  23.387  1.00 40.67    -0.287 OA
BRANCH  10  12
HETATM   12  C17 RAL A 600      31.430  -2.378  24.662  1.00 36.96     0.015 A 
HETATM   13  C18 RAL A 600      30.803  -2.661  25.859  1.00 34.73     0.018 A 
HETATM   14  C19 RAL A 600      29.942  -1.768  26.466  1.00 34.67     0.037 A 
HETATM   15  C20 RAL A 600      29.678  -0.556  25.830  1.00 37.20     0.068 A 
HETATM   16  C21 RAL A 600      30.307  -0.258  24.635  1.00 40.93     0.037 A 
HETATM   17  C22 RAL A 600      31.187  -1.161  24.062  1.00 39.84     0.018 A 
BRANCH  15  18
HETATM   18  O23 RAL A 600      28.864   0.464  26.227  1.00 36.45    -0.349 OA
BRANCH  18  19
HETATM   19  C24 RAL A 600      29.177   1.080  27.467  1.00 38.03     0.206 C 
BRANCH  19  20
HETATM   20  C25 RAL A 600      30.473   0.538  28.009  1.00 43.08     0.299 C 
BRANCH  20  21
HETATM   21  N26 RAL A 600      31.825   1.019  27.798  1.00 46.61     0.090 N 
HETATM   22  C27 RAL A 600      31.966   1.442  26.390  1.00 47.65     0.272 C 
HETATM   23  C28 RAL A 600      33.316   2.116  26.075  1.00 48.95     0.030 C 
HETATM   24  C29 RAL A 600      34.408   1.066  26.340  1.00 50.06     0.003 C 
HETATM   25  C30 RAL A 600      34.314   0.807  27.875  1.00 50.91     0.030 C 
HETATM   26  C31 RAL A 600      32.956   0.133  28.134  1.00 50.67     0.272 C 
ENDBRANCH  20  21
ENDBRANCH  19  20
ENDBRANCH  18  19
ENDBRANCH  15  18
ENDBRANCH  10  12
ENDBRANCH   9  10
BRANCH   7  27
HETATM   27  C8  RAL A 600      34.290  -3.728  21.646  1.00 35.62    -0.018 A 
HETATM   28  C9  RAL A 600      33.248  -3.008  21.094  1.00 35.20     0.015 A 
HETATM   29  C10 RAL A 600      32.953  -3.201  19.754  1.00 38.32     0.037 A 
HETATM   30  C11 RAL A 600      33.648  -4.116  18.987  1.00 39.44     0.065 A 
HETATM   31  C12 RAL A 600      34.717  -4.800  19.527  1.00 36.17     0.037 A 
HETATM   32  C13 RAL A 600      35.016  -4.588  20.868  1.00 34.51     0.015 A 
BRANCH  30  33
HETATM   33  O11 RAL A 600      33.282  -4.237  17.645  1.00 46.17    -0.361 OA
ATOM     34  H11 RAL A 600      32.661  -4.921  17.422  1.00  0.00     0.217 HD
ENDBRANCH  30  33
ENDBRANCH   7  27
BRANCH   3  35
HETATM   35  O3  RAL A 600      36.750  -2.466  28.751  1.00 32.81    -0.361 OA
ATOM     36  H3  RAL A 600      36.856  -1.558  29.011  1.00  0.00     0.217 HD
ENDBRANCH   3  35
TORSDOF 9
