REMARK  9 active torsions:
REMARK  status: ('A' for Active; 'I' for Inactive)
REMARK    1  A    between atoms: C3_3  and  O3_4 
REMARK    2  A    between atoms: C7_9  and  C8_10 
REMARK    3  A    between atoms: C11_13  and  O11_14 
REMARK    4  A    between atoms: C15_19  and  C16_20 
REMARK    5  A    between atoms: C16_20  and  C17_22 
REMARK    6  A    between atoms: C20_25  and  O23_28 
REMARK    7  A    between atoms: O23_28  and  C24_29 
REMARK    8  A    between atoms: C24_29  and  C25_30 
REMARK    9  A    between atoms: C25_30  and  N26_31 
ROOT
HETATM    1  C1  RAL A 600      33.792   0.203  25.750  1.00 31.33     0.016 A 
HETATM    2  C2  RAL A 600      34.907   0.624  26.428  1.00 30.47     0.037 A 
HETATM    3  C3  RAL A 600      34.900   0.866  27.773  1.00 31.66     0.067 A 
HETATM    4  C4  RAL A 600      33.722   0.662  28.500  1.00 33.99     0.056 A 
HETATM    5  C5  RAL A 600      32.617   0.207  27.824  1.00 33.49     0.019 A 
HETATM    6  S6  RAL A 600      31.087  -0.080  28.381  1.00 33.96    -0.088 SA
HETATM    7  C7  RAL A 600      30.399  -0.598  26.929  1.00 34.48     0.031 A 
HETATM    8  C14 RAL A 600      32.647  -0.021  26.418  1.00 31.87    -0.003 A 
HETATM    9  C15 RAL A 600      31.359  -0.458  25.905  1.00 33.10     0.044 A 
ENDROOT
BRANCH   9  10
HETATM   10  C16 RAL A 600      31.141  -0.706  24.563  1.00 36.94     0.194 C 
HETATM   11  O16 RAL A 600      30.285  -0.050  23.956  1.00 40.67    -0.287 OA
BRANCH  10  12
HETATM   12  C17 RAL A 600      31.876  -1.732  23.815  1.00 36.96     0.015 A 
HETATM   13  C18 RAL A 600      32.543  -2.743  24.478  1.00 34.73     0.018 A 
HETATM   14  C19 RAL A 600      33.256  -3.716  23.805  1.00 34.67     0.037 A 
HETATM   15  C20 RAL A 600      33.325  -3.654  22.415  1.00 37.20     0.068 A 
HETATM   16  C21 RAL A 600      32.654  -2.651  21.739  1.00 40.93     0.037 A 
HETATM   17  C22 RAL A 600      31.924  -1.703  22.438  1.00 39.84     0.018 A 
BRANCH  15  18
HETATM   18  O23 RAL A 600      33.970  -4.486  21.547  1.00 36.45    -0.349 OA
BRANCH  18  19
HETATM   19  C24 RAL A 600      33.152  -5.265  20.688  1.00 38.03     0.206 C 
BRANCH  19  20
HETATM   20  C25 RAL A 600      32.898  -4.531  19.399  1.00 43.08     0.299 C 
BRANCH  20  21
HETATM   21  N26 RAL A 600      31.640  -4.078  18.837  1.00 46.61     0.090 N 
HETATM   22  C27 RAL A 600      31.892  -2.876  18.016  1.00 47.65     0.272 C 
HETATM   23  C28 RAL A 600      30.654  -2.384  17.239  1.00 48.95     0.030 C 
HETATM   24  C29 RAL A 600      29.598  -1.997  18.287  1.00 50.06     0.003 C 
HETATM   25  C30 RAL A 600      29.254  -3.348  18.988  1.00 50.91     0.030 C 
HETATM   26  C31 RAL A 600      30.516  -3.792  19.749  1.00 50.67     0.272 C 
ENDBRANCH  20  21
ENDBRANCH  19  20
ENDBRANCH  18  19
ENDBRANCH  15  18
ENDBRANCH  10  12
ENDBRANCH   9  10
BRANCH   7  27
HETATM   27  C8  RAL A 600      28.955  -0.931  26.772  1.00 35.62    -0.018 A 
HETATM   28  C9  RAL A 600      28.681  -2.259  26.508  1.00 35.20     0.015 A 
HETATM   29  C10 RAL A 600      27.355  -2.655  26.437  1.00 38.32     0.037 A 
HETATM   30  C11 RAL A 600      26.323  -1.749  26.583  1.00 39.44     0.065 A 
HETATM   31  C12 RAL A 600      26.598  -0.433  26.892  1.00 36.17     0.037 A 
HETATM   32  C13 RAL A 600      27.930  -0.048  26.979  1.00 34.51     0.015 A 
BRANCH  30  33
HETATM   33  O11 RAL A 600      25.020  -2.243  26.499  1.00 46.17    -0.361 OA
ATOM     34  H11 RAL A 600      24.683  -2.442  25.634  1.00  0.00     0.217 HD
ENDBRANCH  30  33
ENDBRANCH   7  27
BRANCH   3  35
HETATM   35  O3  RAL A 600      36.090   1.256  28.337  1.00 32.81    -0.361 OA
ATOM     36  H3  RAL A 600      36.559   0.601  28.841  1.00  0.00     0.217 HD
ENDBRANCH   3  35
TORSDOF 9
