REMARK  9 active torsions:
REMARK  status: ('A' for Active; 'I' for Inactive)
REMARK    1  A    between atoms: C3_3  and  O3_4 
REMARK    2  A    between atoms: C7_9  and  C8_10 
REMARK    3  A    between atoms: C11_13  and  O11_14 
REMARK    4  A    between atoms: C15_19  and  C16_20 
REMARK    5  A    between atoms: C16_20  and  C17_22 
REMARK    6  A    between atoms: C20_25  and  O23_28 
REMARK    7  A    between atoms: O23_28  and  C24_29 
REMARK    8  A    between atoms: C24_29  and  C25_30 
REMARK    9  A    between atoms: C25_30  and  N26_31 
ROOT
HETATM    1  C1  RAL A 600      33.845   0.317  25.321  1.00 31.33     0.016 A 
HETATM    2  C2  RAL A 600      35.022   0.710  25.904  1.00 30.47     0.037 A 
HETATM    3  C3  RAL A 600      35.136   0.934  27.247  1.00 31.66     0.067 A 
HETATM    4  C4  RAL A 600      34.021   0.742  28.071  1.00 33.99     0.056 A 
HETATM    5  C5  RAL A 600      32.853   0.315  27.488  1.00 33.49     0.019 A 
HETATM    6  S6  RAL A 600      31.373   0.049  28.172  1.00 33.96    -0.088 SA
HETATM    7  C7  RAL A 600      30.552  -0.438  26.780  1.00 34.48     0.031 A 
HETATM    8  C14 RAL A 600      32.758   0.105  26.082  1.00 31.87    -0.003 A 
HETATM    9  C15 RAL A 600      31.422  -0.302  25.677  1.00 33.10     0.044 A 
ENDROOT
BRANCH   9  10
HETATM   10  C16 RAL A 600      31.085  -0.528  24.356  1.00 36.94     0.194 C 
HETATM   11  O16 RAL A 600      30.287   0.233  23.795  1.00 40.67    -0.287 OA
BRANCH  10  12
HETATM   12  C17 RAL A 600      31.622  -1.652  23.581  1.00 36.96     0.015 A 
HETATM   13  C18 RAL A 600      31.159  -1.913  22.307  1.00 34.73     0.018 A 
HETATM   14  C19 RAL A 600      31.633  -2.971  21.556  1.00 34.67     0.037 A 
HETATM   15  C20 RAL A 600      32.589  -3.816  22.118  1.00 37.20     0.068 A 
HETATM   16  C21 RAL A 600      33.066  -3.559  23.391  1.00 40.93     0.037 A 
HETATM   17  C22 RAL A 600      32.593  -2.475  24.111  1.00 39.84     0.018 A 
BRANCH  15  18
HETATM   18  O23 RAL A 600      33.187  -4.916  21.579  1.00 36.45    -0.349 OA
BRANCH  18  19
HETATM   19  C24 RAL A 600      34.435  -4.708  20.935  1.00 38.03     0.206 C 
BRANCH  19  20
HETATM   20  C25 RAL A 600      34.259  -3.835  19.722  1.00 43.08     0.299 C 
BRANCH  20  21
HETATM   21  N26 RAL A 600      33.531  -4.106  18.497  1.00 46.61     0.090 N 
HETATM   22  C27 RAL A 600      32.231  -3.406  18.551  1.00 47.65     0.272 C 
HETATM   23  C28 RAL A 600      31.423  -3.493  17.241  1.00 48.95     0.030 C 
HETATM   24  C29 RAL A 600      31.121  -4.981  17.004  1.00 50.06     0.003 C 
HETATM   25  C30 RAL A 600      32.527  -5.617  16.777  1.00 50.91     0.030 C 
HETATM   26  C31 RAL A 600      33.288  -5.510  18.110  1.00 50.67     0.272 C 
ENDBRANCH  20  21
ENDBRANCH  19  20
ENDBRANCH  18  19
ENDBRANCH  15  18
ENDBRANCH  10  12
ENDBRANCH   9  10
BRANCH   7  27
HETATM   27  C8  RAL A 600      29.093  -0.743  26.744  1.00 35.62    -0.018 A 
HETATM   28  C9  RAL A 600      28.762  -1.984  26.236  1.00 35.20     0.015 A 
HETATM   29  C10 RAL A 600      27.431  -2.368  26.254  1.00 38.32     0.037 A 
HETATM   30  C11 RAL A 600      26.444  -1.526  26.728  1.00 39.44     0.065 A 
HETATM   31  C12 RAL A 600      26.782  -0.307  27.277  1.00 36.17     0.037 A 
HETATM   32  C13 RAL A 600      28.121   0.063  27.270  1.00 34.51     0.015 A 
BRANCH  30  33
HETATM   33  O11 RAL A 600      25.132  -2.002  26.710  1.00 46.17    -0.361 OA
ATOM     34  H11 RAL A 600      24.749  -2.196  25.862  1.00  0.00     0.217 HD
ENDBRANCH  30  33
ENDBRANCH   7  27
BRANCH   3  35
HETATM   35  O3  RAL A 600      36.377   1.295  27.710  1.00 32.81    -0.361 OA
ATOM     36  H3  RAL A 600      36.909   1.830  27.134  1.00  0.00     0.217 HD
ENDBRANCH   3  35
TORSDOF 9
