REMARK  9 active torsions:
REMARK  status: ('A' for Active; 'I' for Inactive)
REMARK    1  A    between atoms: C3_3  and  O3_4 
REMARK    2  A    between atoms: C7_9  and  C8_10 
REMARK    3  A    between atoms: C11_13  and  O11_14 
REMARK    4  A    between atoms: C15_19  and  C16_20 
REMARK    5  A    between atoms: C16_20  and  C17_22 
REMARK    6  A    between atoms: C20_25  and  O23_28 
REMARK    7  A    between atoms: O23_28  and  C24_29 
REMARK    8  A    between atoms: C24_29  and  C25_30 
REMARK    9  A    between atoms: C25_30  and  N26_31 
ROOT
HETATM    1  C1  RAL A 600      34.569  -1.279  26.377  1.00 31.33     0.016 A 
HETATM    2  C2  RAL A 600      35.532  -1.298  27.353  1.00 30.47     0.037 A 
HETATM    3  C3  RAL A 600      36.666  -2.055  27.251  1.00 31.66     0.067 A 
HETATM    4  C4  RAL A 600      36.871  -2.829  26.104  1.00 33.99     0.056 A 
HETATM    5  C5  RAL A 600      35.922  -2.780  25.113  1.00 33.49     0.019 A 
HETATM    6  S6  RAL A 600      35.853  -3.604  23.682  1.00 33.96    -0.088 SA
HETATM    7  C7  RAL A 600      34.401  -2.960  23.108  1.00 34.48     0.031 A 
HETATM    8  C14 RAL A 600      34.742  -1.996  25.253  1.00 31.87    -0.003 A 
HETATM    9  C15 RAL A 600      33.857  -2.126  24.106  1.00 33.10     0.044 A 
ENDROOT
BRANCH   9  10
HETATM   10  C16 RAL A 600      32.635  -1.483  24.036  1.00 36.94     0.194 C 
HETATM   11  O16 RAL A 600      32.055  -1.400  22.946  1.00 40.67    -0.287 OA
BRANCH  10  12
HETATM   12  C17 RAL A 600      31.991  -0.872  25.204  1.00 36.96     0.015 A 
HETATM   13  C18 RAL A 600      31.801   0.494  25.269  1.00 34.73     0.018 A 
HETATM   14  C19 RAL A 600      31.211   1.102  26.360  1.00 34.67     0.037 A 
HETATM   15  C20 RAL A 600      30.824   0.310  27.440  1.00 37.20     0.068 A 
HETATM   16  C21 RAL A 600      31.001  -1.061  27.382  1.00 40.93     0.037 A 
HETATM   17  C22 RAL A 600      31.571  -1.647  26.264  1.00 39.84     0.018 A 
BRANCH  15  18
HETATM   18  O23 RAL A 600      30.240   0.682  28.614  1.00 36.45    -0.349 OA
BRANCH  18  19
HETATM   19  C24 RAL A 600      29.312  -0.231  29.179  1.00 38.03     0.206 C 
BRANCH  19  20
HETATM   20  C25 RAL A 600      27.942  -0.016  28.592  1.00 43.08     0.299 C 
BRANCH  20  21
HETATM   21  N26 RAL A 600      27.356  -0.600  27.401  1.00 46.61     0.090 N 
HETATM   22  C27 RAL A 600      25.913  -0.809  27.634  1.00 47.65     0.272 C 
HETATM   23  C28 RAL A 600      25.143  -1.286  26.386  1.00 48.95     0.030 C 
HETATM   24  C29 RAL A 600      25.736  -2.650  25.996  1.00 50.06     0.003 C 
HETATM   25  C30 RAL A 600      27.205  -2.318  25.591  1.00 50.91     0.030 C 
HETATM   26  C31 RAL A 600      27.927  -1.852  26.868  1.00 50.67     0.272 C 
ENDBRANCH  20  21
ENDBRANCH  19  20
ENDBRANCH  18  19
ENDBRANCH  15  18
ENDBRANCH  10  12
ENDBRANCH   9  10
BRANCH   7  27
HETATM   27  C8  RAL A 600      33.745  -3.401  21.844  1.00 35.62    -0.018 A 
HETATM   28  C9  RAL A 600      32.488  -3.954  21.994  1.00 35.20     0.015 A 
HETATM   29  C10 RAL A 600      31.784  -4.305  20.854  1.00 38.32     0.037 A 
HETATM   30  C11 RAL A 600      32.329  -4.150  19.594  1.00 39.44     0.065 A 
HETATM   31  C12 RAL A 600      33.564  -3.555  19.444  1.00 36.17     0.037 A 
HETATM   32  C13 RAL A 600      34.256  -3.191  20.593  1.00 34.51     0.015 A 
BRANCH  30  33
HETATM   33  O11 RAL A 600      31.542  -4.529  18.504  1.00 46.17    -0.361 OA
ATOM     34  H11 RAL A 600      30.960  -5.270  18.623  1.00  0.00     0.217 HD
ENDBRANCH  30  33
ENDBRANCH   7  27
BRANCH   3  35
HETATM   35  O3  RAL A 600      37.565  -1.962  28.284  1.00 32.81    -0.361 OA
ATOM     36  H3  RAL A 600      37.220  -1.693  29.128  1.00  0.00     0.217 HD
ENDBRANCH   3  35
TORSDOF 9
