REMARK  9 active torsions:
REMARK  status: ('A' for Active; 'I' for Inactive)
REMARK    1  A    between atoms: C3_3  and  O3_4 
REMARK    2  A    between atoms: C7_9  and  C8_10 
REMARK    3  A    between atoms: C11_13  and  O11_14 
REMARK    4  A    between atoms: C15_19  and  C16_20 
REMARK    5  A    between atoms: C16_20  and  C17_22 
REMARK    6  A    between atoms: C20_25  and  O23_28 
REMARK    7  A    between atoms: O23_28  and  C24_29 
REMARK    8  A    between atoms: C24_29  and  C25_30 
REMARK    9  A    between atoms: C25_30  and  N26_31 
ROOT
HETATM    1  C1  RAL A 600      27.877  -0.978  26.111  1.00 31.33     0.016 A 
HETATM    2  C2  RAL A 600      26.709  -1.263  26.770  1.00 30.47     0.037 A 
HETATM    3  C3  RAL A 600      26.639  -1.352  28.133  1.00 31.66     0.067 A 
HETATM    4  C4  RAL A 600      27.791  -1.128  28.894  1.00 33.99     0.056 A 
HETATM    5  C5  RAL A 600      28.951  -0.809  28.232  1.00 33.49     0.019 A 
HETATM    6  S6  RAL A 600      30.466  -0.540  28.835  1.00 33.96    -0.088 SA
HETATM    7  C7  RAL A 600      31.251  -0.225  27.374  1.00 34.48     0.031 A 
HETATM    8  C14 RAL A 600      29.000  -0.740  26.810  1.00 31.87    -0.003 A 
HETATM    9  C15 RAL A 600      30.334  -0.430  26.321  1.00 33.10     0.044 A 
ENDROOT
BRANCH   9  10
HETATM   10  C16 RAL A 600      30.628  -0.346  24.974  1.00 36.94     0.194 C 
HETATM   11  O16 RAL A 600      30.184   0.602  24.314  1.00 40.67    -0.287 OA
BRANCH  10  12
HETATM   12  C17 RAL A 600      31.440  -1.348  24.274  1.00 36.96     0.015 A 
HETATM   13  C18 RAL A 600      31.855  -2.494  24.921  1.00 34.73     0.018 A 
HETATM   14  C19 RAL A 600      32.633  -3.450  24.296  1.00 34.67     0.037 A 
HETATM   15  C20 RAL A 600      33.032  -3.231  22.979  1.00 37.20     0.068 A 
HETATM   16  C21 RAL A 600      32.615  -2.089  22.317  1.00 40.93     0.037 A 
HETATM   17  C22 RAL A 600      31.813  -1.161  22.960  1.00 39.84     0.018 A 
BRANCH  15  18
HETATM   18  O23 RAL A 600      33.799  -4.016  22.170  1.00 36.45    -0.349 OA
BRANCH  18  19
HETATM   19  C24 RAL A 600      33.926  -3.603  20.818  1.00 38.03     0.206 C 
BRANCH  19  20
HETATM   20  C25 RAL A 600      33.086  -4.476  19.924  1.00 43.08     0.299 C 
BRANCH  20  21
HETATM   21  N26 RAL A 600      31.828  -4.172  19.269  1.00 46.61     0.090 N 
HETATM   22  C27 RAL A 600      32.070  -3.159  18.221  1.00 47.65     0.272 C 
HETATM   23  C28 RAL A 600      30.834  -2.861  17.348  1.00 48.95     0.030 C 
HETATM   24  C29 RAL A 600      29.757  -2.290  18.284  1.00 50.06     0.003 C 
HETATM   25  C30 RAL A 600      29.428  -3.475  19.243  1.00 50.91     0.030 C 
HETATM   26  C31 RAL A 600      30.686  -3.728  20.091  1.00 50.67     0.272 C 
ENDBRANCH  20  21
ENDBRANCH  19  20
ENDBRANCH  18  19
ENDBRANCH  15  18
ENDBRANCH  10  12
ENDBRANCH   9  10
BRANCH   7  27
HETATM   27  C8  RAL A 600      32.717   0.014  27.259  1.00 35.62    -0.018 A 
HETATM   28  C9  RAL A 600      33.089   0.966  26.329  1.00 35.20     0.015 A 
HETATM   29  C10 RAL A 600      34.429   1.301  26.231  1.00 38.32     0.037 A 
HETATM   30  C11 RAL A 600      35.387   0.678  27.007  1.00 39.44     0.065 A 
HETATM   31  C12 RAL A 600      35.009  -0.239  27.966  1.00 36.17     0.037 A 
HETATM   32  C13 RAL A 600      33.660  -0.556  28.069  1.00 34.51     0.015 A 
BRANCH  30  33
HETATM   33  O11 RAL A 600      36.712   1.085  26.840  1.00 46.17    -0.361 OA
ATOM     34  H11 RAL A 600      36.861   1.964  26.511  1.00  0.00     0.217 HD
ENDBRANCH  30  33
ENDBRANCH   7  27
BRANCH   3  35
HETATM   35  O3  RAL A 600      25.404  -1.614  28.671  1.00 32.81    -0.361 OA
ATOM     36  H3  RAL A 600      25.303  -2.441  29.128  1.00  0.00     0.217 HD
ENDBRANCH   3  35
TORSDOF 9
