REMARK  11 active torsions:
REMARK  status: ('A' for Active; 'I' for Inactive)
REMARK    1  A    between atoms: N_1  and  CA_3 
REMARK    2  A    between atoms: N_1  and  C1A_12 
REMARK    3  A    between atoms: CA_3  and  CB_4 
REMARK    4  A    between atoms: CA_3  and  C_43 
REMARK    5  A    between atoms: CB_4  and  CG_5 
REMARK    6  A    between atoms: CZ_10  and  OH_11 
REMARK    7  A    between atoms: OH_11  and  C3A_39 
REMARK    8  A    between atoms: C1F_13  and  C1G_24 
REMARK    9  A    between atoms: C1H_18  and  C1G_24 
REMARK   10  A    between atoms: C3C_30  and  C3B_40 
REMARK   11  A    between atoms: C3A_39  and  C3B_40 
ROOT
HETATM    1  CG  570 D 200      46.325 -39.108  17.880  1.00 34.93    -0.056 A 
HETATM    2  CD1 570 D 200      46.892 -38.074  17.064  1.00 36.13     0.010 A 
HETATM    3  CD2 570 D 200      45.816 -38.795  19.183  1.00 35.34     0.010 A 
HETATM    4  CE1 570 D 200      46.953 -36.748  17.532  1.00 35.68     0.037 A 
HETATM    5  CE2 570 D 200      45.872 -37.467  19.663  1.00 34.88     0.037 A 
HETATM    6  CZ  570 D 200      46.452 -36.407  18.829  1.00 35.98     0.068 A 
ENDROOT
BRANCH   1   7
HETATM    7  CB  570 D 200      46.282 -40.535  17.324  1.00 34.81     0.074 C 
BRANCH   7   8
HETATM    8  CA  570 D 200      47.644 -41.294  17.390  1.00 35.38     0.187 C 
BRANCH   8   9
HETATM    9  N   570 D 200      48.352 -41.357  16.057  1.00 36.24    -0.375 N 
ATOM     10  HN  570 D 200      49.233 -41.869  16.091  1.00  0.00     0.160 HD
BRANCH   9  11
HETATM   11  C1A 570 D 200      48.035 -40.835  14.730  1.00 37.40     0.043 A 
HETATM   12  C1F 570 D 200      48.346 -41.605  13.520  1.00 39.24     0.041 A 
HETATM   13  C1E 570 D 200      47.994 -41.010  12.253  1.00 39.11     0.018 A 
HETATM   14  C1D 570 D 200      47.378 -39.739  12.176  1.00 38.73     0.001 A 
HETATM   15  C1C 570 D 200      47.087 -39.015  13.346  1.00 38.13     0.002 A 
HETATM   16  C1B 570 D 200      47.405 -39.546  14.598  1.00 36.97     0.030 A 
BRANCH  12  17
HETATM   17  C1G 570 D 200      49.031 -43.036  13.463  1.00 41.38     0.194 C 
HETATM   18  O1G 570 D 200      49.033 -43.614  12.357  1.00 42.16    -0.287 OA
BRANCH  17  19
HETATM   19  C1H 570 D 200      49.765 -43.821  14.539  1.00 42.73     0.015 A 
HETATM   20  C1I 570 D 200      49.127 -44.962  15.156  1.00 44.25     0.015 A 
HETATM   21  C1J 570 D 200      49.800 -45.711  16.164  1.00 44.58     0.001 A 
HETATM   22  C1K 570 D 200      51.115 -45.332  16.565  1.00 44.26     0.000 A 
HETATM   23  C1L 570 D 200      51.751 -44.209  15.964  1.00 44.32     0.001 A 
HETATM   24  C1M 570 D 200      51.084 -43.462  14.962  1.00 43.55     0.015 A 
ENDBRANCH  17  19
ENDBRANCH  12  17
ENDBRANCH   9  11
ENDBRANCH   8   9
BRANCH   8  25
HETATM   25  C   570 D 200      47.460 -42.665  17.979  1.00 34.52     0.197 C 
HETATM   26  O2  570 D 200      48.341 -43.521  17.723  1.00 34.47    -0.646 OA
HETATM   27  O1  570 D 200      46.403 -42.920  18.644  1.00 33.12    -0.646 OA
ENDBRANCH   8  25
ENDBRANCH   7   8
ENDBRANCH   1   7
BRANCH   6  28
HETATM   28  OH  570 D 200      46.572 -35.029  19.181  1.00 36.39    -0.351 OA
BRANCH  28  29
HETATM   29  C3A 570 D 200      47.878 -34.430  19.362  1.00 37.03     0.181 C 
BRANCH  29  30
HETATM   30  C3B 570 D 200      48.813 -35.492  19.972  1.00 36.82     0.086 C 
BRANCH  30  31
HETATM   31  C3C 570 D 200      50.328 -35.233  19.670  1.00 37.38     0.043 A 
HETATM   32  N3H 570 D 200      51.290 -35.431  20.637  1.00 37.12    -0.337 N 
HETATM   33  C3G 570 D 200      52.540 -35.108  20.058  1.00 38.63     0.158 A 
ATOM     34  H3H 570 D 200      51.131 -35.752  21.592  1.00  0.00     0.168 HD
HETATM   35  O3F 570 D 200      52.248 -34.735  18.750  1.00 39.12    -0.296 OA
HETATM   36  C3I 570 D 200      53.780 -35.158  20.694  1.00 38.84     0.015 A 
HETATM   37  C3D 570 D 200      50.908 -34.775  18.433  1.00 38.13     0.074 A 
HETATM   38  C3E 570 D 200      50.223 -34.425  17.106  1.00 38.01     0.079 C 
HETATM   39  C3N 570 D 200      53.927 -35.557  22.073  1.00 39.01     0.016 A 
HETATM   40  C3J 570 D 200      54.951 -34.793  19.949  1.00 40.05     0.016 A 
HETATM   41  C3M 570 D 200      55.213 -35.586  22.672  1.00 39.51     0.001 A 
HETATM   42  C3L 570 D 200      56.359 -35.221  21.918  1.00 39.34     0.000 A 
HETATM   43  C3K 570 D 200      56.230 -34.827  20.558  1.00 39.52     0.001 A 
ENDBRANCH  30  31
ENDBRANCH  29  30
ENDBRANCH  28  29
ENDBRANCH   6  28
TORSDOF 11
