REMARK  11 active torsions:
REMARK  status: ('A' for Active; 'I' for Inactive)
REMARK    1  A    between atoms: N_1  and  CA_3 
REMARK    2  A    between atoms: N_1  and  C1A_12 
REMARK    3  A    between atoms: CA_3  and  CB_4 
REMARK    4  A    between atoms: CA_3  and  C_43 
REMARK    5  A    between atoms: CB_4  and  CG_5 
REMARK    6  A    between atoms: CZ_10  and  OH_11 
REMARK    7  A    between atoms: OH_11  and  C3A_39 
REMARK    8  A    between atoms: C1F_13  and  C1G_24 
REMARK    9  A    between atoms: C1H_18  and  C1G_24 
REMARK   10  A    between atoms: C3C_30  and  C3B_40 
REMARK   11  A    between atoms: C3A_39  and  C3B_40 
ROOT
HETATM    1  CG  570 D 200      46.640 -37.577  15.938  1.00 34.93    -0.056 A 
HETATM    2  CD1 570 D 200      47.727 -36.757  15.490  1.00 36.13     0.010 A 
HETATM    3  CD2 570 D 200      46.099 -37.396  17.254  1.00 35.34     0.010 A 
HETATM    4  CE1 570 D 200      48.271 -35.770  16.333  1.00 35.68     0.037 A 
HETATM    5  CE2 570 D 200      46.638 -36.407  18.108  1.00 34.88     0.037 A 
HETATM    6  CZ  570 D 200      47.751 -35.566  17.650  1.00 35.98     0.068 A 
ENDROOT
BRANCH   1   7
HETATM    7  CB  570 D 200      46.083 -38.638  14.983  1.00 34.81     0.074 C 
BRANCH   7   8
HETATM    8  CA  570 D 200      46.582 -40.089  15.268  1.00 35.38     0.187 C 
BRANCH   8   9
HETATM    9  N   570 D 200      47.117 -40.266  16.669  1.00 36.24    -0.375 N 
ATOM     10  HN  570 D 200      47.828 -39.581  16.921  1.00  0.00     0.160 HD
BRANCH   9  11
HETATM   11  C1A 570 D 200      46.824 -41.217  17.739  1.00 37.40     0.043 A 
HETATM   12  C1F 570 D 200      46.773 -42.660  17.476  1.00 39.24     0.041 A 
HETATM   13  C1E 570 D 200      46.479 -43.523  18.595  1.00 39.11     0.018 A 
HETATM   14  C1D 570 D 200      46.245 -43.004  19.891  1.00 38.73     0.001 A 
HETATM   15  C1C 570 D 200      46.296 -41.618  20.124  1.00 38.13     0.002 A 
HETATM   16  C1B 570 D 200      46.579 -40.739  19.077  1.00 36.97     0.030 A 
BRANCH  12  17
HETATM   17  C1G 570 D 200      47.016 -43.373  16.079  1.00 41.38     0.194 C 
HETATM   18  O1G 570 D 200      46.023 -43.899  15.536  1.00 42.16    -0.287 OA
BRANCH  17  19
HETATM   19  C1H 570 D 200      48.274 -43.472  15.229  1.00 42.73     0.015 A 
HETATM   20  C1I 570 D 200      49.559 -43.153  15.809  1.00 44.25     0.015 A 
HETATM   21  C1J 570 D 200      50.748 -43.243  15.029  1.00 44.58     0.001 A 
HETATM   22  C1K 570 D 200      50.669 -43.652  13.666  1.00 44.26     0.000 A 
HETATM   23  C1L 570 D 200      49.407 -43.967  13.086  1.00 44.32     0.001 A 
HETATM   24  C1M 570 D 200      48.223 -43.879  13.859  1.00 43.55     0.015 A 
ENDBRANCH  17  19
ENDBRANCH  12  17
ENDBRANCH   9  11
ENDBRANCH   8   9
BRANCH   8  25
HETATM   25  C   570 D 200      47.591 -40.515  14.238  1.00 34.52     0.197 C 
HETATM   26  O2  570 D 200      48.801 -40.448  14.561  1.00 34.47    -0.646 OA
HETATM   27  O1  570 D 200      47.190 -40.854  13.077  1.00 33.12    -0.646 OA
ENDBRANCH   8  25
ENDBRANCH   7   8
ENDBRANCH   1   7
BRANCH   6  28
HETATM   28  OH  570 D 200      48.390 -34.533  18.400  1.00 36.39    -0.351 OA
BRANCH  28  29
HETATM   29  C3A 570 D 200      49.087 -33.460  17.721  1.00 37.03     0.181 C 
BRANCH  29  30
HETATM   30  C3B 570 D 200      49.769 -32.581  18.788  1.00 36.82     0.086 C 
BRANCH  30  31
HETATM   31  C3C 570 D 200      50.678 -33.394  19.772  1.00 37.38     0.043 A 
HETATM   32  N3H 570 D 200      52.045 -33.441  19.602  1.00 37.12    -0.337 N 
HETATM   33  C3G 570 D 200      52.569 -34.250  20.638  1.00 38.63     0.158 A 
ATOM     34  H3H 570 D 200      52.580 -32.979  18.866  1.00  0.00     0.168 HD
HETATM   35  O3F 570 D 200      51.465 -34.641  21.387  1.00 39.12    -0.296 OA
HETATM   36  C3I 570 D 200      53.912 -34.572  20.833  1.00 38.84     0.015 A 
HETATM   37  C3D 570 D 200      50.260 -34.164  20.916  1.00 38.13     0.074 A 
HETATM   38  C3E 570 D 200      48.850 -34.396  21.473  1.00 38.01     0.079 C 
HETATM   39  C3N 570 D 200      54.957 -34.097  19.957  1.00 39.01     0.016 A 
HETATM   40  C3J 570 D 200      54.265 -35.410  21.943  1.00 40.05     0.016 A 
HETATM   41  C3M 570 D 200      56.307 -34.459  20.199  1.00 39.51     0.001 A 
HETATM   42  C3L 570 D 200      56.635 -35.289  21.303  1.00 39.34     0.000 A 
HETATM   43  C3K 570 D 200      55.618 -35.763  22.175  1.00 39.52     0.001 A 
ENDBRANCH  30  31
ENDBRANCH  29  30
ENDBRANCH  28  29
ENDBRANCH   6  28
TORSDOF 11
