REMARK  11 active torsions:
REMARK  status: ('A' for Active; 'I' for Inactive)
REMARK    1  A    between atoms: N_1  and  CA_3 
REMARK    2  A    between atoms: N_1  and  C1A_12 
REMARK    3  A    between atoms: CA_3  and  CB_4 
REMARK    4  A    between atoms: CA_3  and  C_43 
REMARK    5  A    between atoms: CB_4  and  CG_5 
REMARK    6  A    between atoms: CZ_10  and  OH_11 
REMARK    7  A    between atoms: OH_11  and  C3A_39 
REMARK    8  A    between atoms: C1F_13  and  C1G_24 
REMARK    9  A    between atoms: C1H_18  and  C1G_24 
REMARK   10  A    between atoms: C3C_30  and  C3B_40 
REMARK   11  A    between atoms: C3A_39  and  C3B_40 
ROOT
HETATM    1  CG  570 D 200      46.430 -38.240  16.369  1.00 34.93    -0.056 A 
HETATM    2  CD1 570 D 200      46.683 -38.418  14.969  1.00 36.13     0.010 A 
HETATM    3  CD2 570 D 200      46.722 -36.985  16.998  1.00 35.34     0.010 A 
HETATM    4  CE1 570 D 200      47.217 -37.366  14.201  1.00 35.68     0.037 A 
HETATM    5  CE2 570 D 200      47.259 -35.922  16.235  1.00 34.88     0.037 A 
HETATM    6  CZ  570 D 200      47.518 -36.102  14.802  1.00 35.98     0.068 A 
ENDROOT
BRANCH   1   7
HETATM    7  CB  570 D 200      45.848 -39.416  17.162  1.00 34.81     0.074 C 
BRANCH   7   8
HETATM    8  CA  570 D 200      46.804 -39.997  18.250  1.00 35.38     0.187 C 
BRANCH   8   9
HETATM    9  N   570 D 200      47.420 -41.317  17.853  1.00 36.24    -0.375 N 
ATOM     10  HN  570 D 200      48.417 -41.253  17.647  1.00  0.00     0.160 HD
BRANCH   9  11
HETATM   11  C1A 570 D 200      46.883 -42.667  17.703  1.00 37.40     0.043 A 
HETATM   12  C1F 570 D 200      47.526 -43.643  16.816  1.00 39.24     0.041 A 
HETATM   13  C1E 570 D 200      46.924 -44.953  16.733  1.00 39.11     0.018 A 
HETATM   14  C1D 570 D 200      45.764 -45.285  17.471  1.00 38.73     0.001 A 
HETATM   15  C1C 570 D 200      45.160 -44.336  18.315  1.00 38.13     0.002 A 
HETATM   16  C1B 570 D 200      45.702 -43.054  18.434  1.00 36.97     0.030 A 
BRANCH  12  17
HETATM   17  C1G 570 D 200      48.826 -43.406  15.937  1.00 41.38     0.194 C 
HETATM   18  O1G 570 D 200      49.830 -44.090  16.223  1.00 42.16    -0.287 OA
BRANCH  17  19
HETATM   19  C1H 570 D 200      49.048 -42.512  14.728  1.00 42.73     0.015 A 
HETATM   20  C1I 570 D 200      47.963 -41.696  14.230  1.00 44.25     0.015 A 
HETATM   21  C1J 570 D 200      48.153 -40.850  13.099  1.00 44.58     0.001 A 
HETATM   22  C1K 570 D 200      49.424 -40.807  12.455  1.00 44.26     0.000 A 
HETATM   23  C1L 570 D 200      50.498 -41.608  12.938  1.00 44.32     0.001 A 
HETATM   24  C1M 570 D 200      50.312 -42.451  14.061  1.00 43.55     0.015 A 
ENDBRANCH  17  19
ENDBRANCH  12  17
ENDBRANCH   9  11
ENDBRANCH   8   9
BRANCH   8  25
HETATM   25  C   570 D 200      46.103 -40.094  19.575  1.00 34.52     0.197 C 
HETATM   26  O2  570 D 200      45.094 -39.366  19.743  1.00 34.47    -0.646 OA
HETATM   27  O1  570 D 200      46.588 -40.844  20.483  1.00 33.12    -0.646 OA
ENDBRANCH   8  25
ENDBRANCH   7   8
ENDBRANCH   1   7
BRANCH   6  28
HETATM   28  OH  570 D 200      48.052 -35.122  13.912  1.00 36.39    -0.351 OA
BRANCH  28  29
HETATM   29  C3A 570 D 200      47.388 -33.846  13.744  1.00 37.03     0.181 C 
BRANCH  29  30
HETATM   30  C3B 570 D 200      48.111 -32.810  14.626  1.00 36.82     0.086 C 
BRANCH  30  31
HETATM   31  C3C 570 D 200      49.130 -33.452  15.629  1.00 37.38     0.043 A 
HETATM   32  N3H 570 D 200      48.892 -33.443  16.986  1.00 37.12    -0.337 N 
HETATM   33  C3G 570 D 200      49.988 -34.087  17.608  1.00 38.63     0.158 A 
ATOM     34  H3H 570 D 200      48.078 -33.045  17.455  1.00  0.00     0.168 HD
HETATM   35  O3F 570 D 200      50.829 -34.460  16.566  1.00 39.12    -0.296 OA
HETATM   36  C3I 570 D 200      50.158 -34.285  18.978  1.00 38.84     0.015 A 
HETATM   37  C3D 570 D 200      50.379 -34.098  15.314  1.00 38.13     0.074 A 
HETATM   38  C3E 570 D 200      51.041 -34.329  13.950  1.00 38.01     0.079 C 
HETATM   39  C3N 570 D 200      49.195 -33.828  19.952  1.00 39.01     0.016 A 
HETATM   40  C3J 570 D 200      51.337 -34.962  19.435  1.00 40.05     0.016 A 
HETATM   41  C3M 570 D 200      49.421 -34.051  21.335  1.00 39.51     0.001 A 
HETATM   42  C3L 570 D 200      50.594 -34.723  21.766  1.00 39.34     0.000 A 
HETATM   43  C3K 570 D 200      51.550 -35.181  20.819  1.00 39.52     0.001 A 
ENDBRANCH  30  31
ENDBRANCH  29  30
ENDBRANCH  28  29
ENDBRANCH   6  28
TORSDOF 11
