REMARK  11 active torsions:
REMARK  status: ('A' for Active; 'I' for Inactive)
REMARK    1  A    between atoms: N_1  and  CA_3 
REMARK    2  A    between atoms: N_1  and  C1A_12 
REMARK    3  A    between atoms: CA_3  and  CB_4 
REMARK    4  A    between atoms: CA_3  and  C_43 
REMARK    5  A    between atoms: CB_4  and  CG_5 
REMARK    6  A    between atoms: CZ_10  and  OH_11 
REMARK    7  A    between atoms: OH_11  and  C3A_39 
REMARK    8  A    between atoms: C1F_13  and  C1G_24 
REMARK    9  A    between atoms: C1H_18  and  C1G_24 
REMARK   10  A    between atoms: C3C_30  and  C3B_40 
REMARK   11  A    between atoms: C3A_39  and  C3B_40 
ROOT
HETATM    1  CG  570 D 200      46.934 -39.316  16.864  1.00 34.93    -0.056 A 
HETATM    2  CD1 570 D 200      47.554 -38.456  17.829  1.00 36.13     0.010 A 
HETATM    3  CD2 570 D 200      46.858 -38.915  15.489  1.00 35.34     0.010 A 
HETATM    4  CE1 570 D 200      48.093 -37.216  17.438  1.00 35.68     0.037 A 
HETATM    5  CE2 570 D 200      47.396 -37.671  15.086  1.00 34.88     0.037 A 
HETATM    6  CZ  570 D 200      48.032 -36.790  16.073  1.00 35.98     0.068 A 
ENDROOT
BRANCH   1   7
HETATM    7  CB  570 D 200      46.363 -40.656  17.339  1.00 34.81     0.074 C 
BRANCH   7   8
HETATM    8  CA  570 D 200      46.927 -41.901  16.586  1.00 35.38     0.187 C 
BRANCH   8   9
HETATM    9  N   570 D 200      48.039 -41.557  15.623  1.00 36.24    -0.375 N 
ATOM     10  HN  570 D 200      48.094 -40.562  15.408  1.00  0.00     0.160 HD
BRANCH   9  11
HETATM   11  C1A 570 D 200      49.050 -42.357  14.936  1.00 37.40     0.043 A 
HETATM   12  C1F 570 D 200      49.027 -43.822  14.998  1.00 39.24     0.041 A 
HETATM   13  C1E 570 D 200      50.066 -44.528  14.286  1.00 39.11     0.018 A 
HETATM   14  C1D 570 D 200      51.068 -43.840  13.561  1.00 38.73     0.001 A 
HETATM   15  C1C 570 D 200      51.075 -42.434  13.514  1.00 38.13     0.002 A 
HETATM   16  C1B 570 D 200      50.091 -41.703  14.184  1.00 36.97     0.030 A 
BRANCH  12  17
HETATM   17  C1G 570 D 200      47.966 -44.717  15.767  1.00 41.38     0.194 C 
HETATM   18  O1G 570 D 200      47.339 -45.556  15.088  1.00 42.16    -0.287 OA
BRANCH  17  19
HETATM   19  C1H 570 D 200      47.616 -44.778  17.246  1.00 42.73     0.015 A 
HETATM   20  C1I 570 D 200      46.454 -45.523  17.678  1.00 44.25     0.015 A 
HETATM   21  C1J 570 D 200      46.111 -45.594  19.059  1.00 44.58     0.001 A 
HETATM   22  C1K 570 D 200      46.922 -44.924  20.023  1.00 44.26     0.000 A 
HETATM   23  C1L 570 D 200      48.067 -44.187  19.606  1.00 44.32     0.001 A 
HETATM   24  C1M 570 D 200      48.410 -44.115  18.234  1.00 43.55     0.015 A 
ENDBRANCH  17  19
ENDBRANCH  12  17
ENDBRANCH   9  11
ENDBRANCH   8   9
BRANCH   8  25
HETATM   25  C   570 D 200      45.820 -42.653  15.902  1.00 34.52     0.197 C 
HETATM   26  O2  570 D 200      45.604 -42.380  14.696  1.00 34.47    -0.646 OA
HETATM   27  O1  570 D 200      45.114 -43.472  16.576  1.00 33.12    -0.646 OA
ENDBRANCH   8  25
ENDBRANCH   7   8
ENDBRANCH   1   7
BRANCH   6  28
HETATM   28  OH  570 D 200      48.616 -35.514  15.811  1.00 36.39    -0.351 OA
BRANCH  28  29
HETATM   29  C3A 570 D 200      49.637 -34.981  16.689  1.00 37.03     0.181 C 
BRANCH  29  30
HETATM   30  C3B 570 D 200      48.981 -34.661  18.047  1.00 36.82     0.086 C 
BRANCH  30  31
HETATM   31  C3C 570 D 200      50.012 -34.549  19.222  1.00 37.38     0.043 A 
HETATM   32  N3H 570 D 200      51.320 -34.954  19.061  1.00 37.12    -0.337 N 
HETATM   33  C3G 570 D 200      51.982 -34.731  20.291  1.00 38.63     0.158 A 
ATOM     34  H3H 570 D 200      51.733 -35.343  18.213  1.00  0.00     0.168 HD
HETATM   35  O3F 570 D 200      51.016 -34.186  21.130  1.00 39.12    -0.296 OA
HETATM   36  C3I 570 D 200      53.319 -35.013  20.570  1.00 38.84     0.015 A 
HETATM   37  C3D 570 D 200      49.773 -34.050  20.551  1.00 38.13     0.074 A 
HETATM   38  C3E 570 D 200      48.480 -33.505  21.170  1.00 38.01     0.079 C 
HETATM   39  C3N 570 D 200      54.208 -35.595  19.592  1.00 39.01     0.016 A 
HETATM   40  C3J 570 D 200      53.826 -34.719  21.879  1.00 40.05     0.016 A 
HETATM   41  C3M 570 D 200      55.559 -35.866  19.930  1.00 39.51     0.001 A 
HETATM   42  C3L 570 D 200      56.041 -35.568  21.232  1.00 39.34     0.000 A 
HETATM   43  C3K 570 D 200      55.178 -34.994  22.205  1.00 39.52     0.001 A 
ENDBRANCH  30  31
ENDBRANCH  29  30
ENDBRANCH  28  29
ENDBRANCH   6  28
TORSDOF 11
