REMARK  11 active torsions:
REMARK  status: ('A' for Active; 'I' for Inactive)
REMARK    1  A    between atoms: N_1  and  CA_3 
REMARK    2  A    between atoms: N_1  and  C1A_12 
REMARK    3  A    between atoms: CA_3  and  CB_4 
REMARK    4  A    between atoms: CA_3  and  C_43 
REMARK    5  A    between atoms: CB_4  and  CG_5 
REMARK    6  A    between atoms: CZ_10  and  OH_11 
REMARK    7  A    between atoms: OH_11  and  C3A_39 
REMARK    8  A    between atoms: C1F_13  and  C1G_24 
REMARK    9  A    between atoms: C1H_18  and  C1G_24 
REMARK   10  A    between atoms: C3C_30  and  C3B_40 
REMARK   11  A    between atoms: C3A_39  and  C3B_40 
ROOT
HETATM    1  CG  570 D 200      47.608 -41.087  13.690  1.00 34.93    -0.056 A 
HETATM    2  CD1 570 D 200      47.833 -40.078  12.697  1.00 36.13     0.010 A 
HETATM    3  CD2 570 D 200      46.748 -40.817  14.806  1.00 35.34     0.010 A 
HETATM    4  CE1 570 D 200      47.215 -38.818  12.806  1.00 35.68     0.037 A 
HETATM    5  CE2 570 D 200      46.123 -39.555  14.925  1.00 34.88     0.037 A 
HETATM    6  CZ  570 D 200      46.352 -38.521  13.909  1.00 35.98     0.068 A 
ENDROOT
BRANCH   1   7
HETATM    7  CB  570 D 200      48.304 -42.443  13.525  1.00 34.81     0.074 C 
BRANCH   7   8
HETATM    8  CA  570 D 200      49.230 -42.840  14.716  1.00 35.38     0.187 C 
BRANCH   8   9
HETATM    9  N   570 D 200      48.960 -42.042  15.969  1.00 36.24    -0.375 N 
ATOM     10  HN  570 D 200      49.381 -41.113  15.955  1.00  0.00     0.160 HD
BRANCH   9  11
HETATM   11  C1A 570 D 200      48.221 -42.325  17.196  1.00 37.40     0.043 A 
HETATM   12  C1F 570 D 200      47.654 -41.240  18.006  1.00 39.24     0.041 A 
HETATM   13  C1E 570 D 200      46.937 -41.616  19.202  1.00 39.11     0.018 A 
HETATM   14  C1D 570 D 200      46.787 -42.971  19.581  1.00 38.73     0.001 A 
HETATM   15  C1C 570 D 200      47.338 -43.998  18.793  1.00 38.13     0.002 A 
HETATM   16  C1B 570 D 200      48.039 -43.689  17.626  1.00 36.97     0.030 A 
BRANCH  12  17
HETATM   17  C1G 570 D 200      47.745 -39.686  17.697  1.00 41.38     0.194 C 
HETATM   18  O1G 570 D 200      48.742 -39.298  17.054  1.00 42.16    -0.287 OA
BRANCH  17  19
HETATM   19  C1H 570 D 200      46.766 -38.562  17.999  1.00 42.73     0.015 A 
HETATM   20  C1I 570 D 200      45.885 -38.666  19.141  1.00 44.25     0.015 A 
HETATM   21  C1J 570 D 200      44.963 -37.622  19.441  1.00 44.58     0.001 A 
HETATM   22  C1K 570 D 200      44.910 -36.466  18.609  1.00 44.26     0.000 A 
HETATM   23  C1L 570 D 200      45.773 -36.356  17.482  1.00 44.32     0.001 A 
HETATM   24  C1M 570 D 200      46.691 -37.392  17.180  1.00 43.55     0.015 A 
ENDBRANCH  17  19
ENDBRANCH  12  17
ENDBRANCH   9  11
ENDBRANCH   8   9
BRANCH   8  25
HETATM   25  C   570 D 200      50.676 -42.759  14.314  1.00 34.52     0.197 C 
HETATM   26  O2  570 D 200      51.244 -41.646  14.442  1.00 34.47    -0.646 OA
HETATM   27  O1  570 D 200      51.240 -43.782  13.804  1.00 33.12    -0.646 OA
ENDBRANCH   8  25
ENDBRANCH   7   8
ENDBRANCH   1   7
BRANCH   6  28
HETATM   28  OH  570 D 200      45.788 -37.209  13.899  1.00 36.39    -0.351 OA
BRANCH  28  29
HETATM   29  C3A 570 D 200      45.900 -36.373  12.722  1.00 37.03     0.181 C 
BRANCH  29  30
HETATM   30  C3B 570 D 200      47.351 -35.862  12.632  1.00 36.82     0.086 C 
BRANCH  30  31
HETATM   31  C3C 570 D 200      47.733 -34.874  13.787  1.00 37.38     0.043 A 
HETATM   32  N3H 570 D 200      48.268 -35.337  14.970  1.00 37.12    -0.337 N 
HETATM   33  C3G 570 D 200      48.495 -34.211  15.796  1.00 38.63     0.158 A 
ATOM     34  H3H 570 D 200      48.464 -36.310  15.206  1.00  0.00     0.168 HD
HETATM   35  O3F 570 D 200      48.083 -33.118  15.041  1.00 39.12    -0.296 OA
HETATM   36  C3I 570 D 200      49.017 -34.230  17.089  1.00 38.84     0.015 A 
HETATM   37  C3D 570 D 200      47.592 -33.441  13.795  1.00 38.13     0.074 A 
HETATM   38  C3E 570 D 200      47.043 -32.509  12.707  1.00 38.01     0.079 C 
HETATM   39  C3N 570 D 200      49.393 -35.454  17.754  1.00 39.01     0.016 A 
HETATM   40  C3J 570 D 200      49.180 -32.985  17.783  1.00 40.05     0.016 A 
HETATM   41  C3M 570 D 200      49.916 -35.416  19.073  1.00 39.51     0.001 A 
HETATM   42  C3L 570 D 200      50.069 -34.174  19.743  1.00 39.34     0.000 A 
HETATM   43  C3K 570 D 200      49.704 -32.960  19.100  1.00 39.52     0.001 A 
ENDBRANCH  30  31
ENDBRANCH  29  30
ENDBRANCH  28  29
ENDBRANCH   6  28
TORSDOF 11
