REMARK  11 active torsions:
REMARK  status: ('A' for Active; 'I' for Inactive)
REMARK    1  A    between atoms: N_1  and  CA_3 
REMARK    2  A    between atoms: N_1  and  C1A_12 
REMARK    3  A    between atoms: CA_3  and  CB_4 
REMARK    4  A    between atoms: CA_3  and  C_43 
REMARK    5  A    between atoms: CB_4  and  CG_5 
REMARK    6  A    between atoms: CZ_10  and  OH_11 
REMARK    7  A    between atoms: OH_11  and  C3A_39 
REMARK    8  A    between atoms: C1F_13  and  C1G_24 
REMARK    9  A    between atoms: C1H_18  and  C1G_24 
REMARK   10  A    between atoms: C3C_30  and  C3B_40 
REMARK   11  A    between atoms: C3A_39  and  C3B_40 
ROOT
HETATM    1  CG  570 D 200      48.278 -37.707  16.429  1.00 34.93    -0.056 A 
HETATM    2  CD1 570 D 200      48.205 -38.312  17.727  1.00 36.13     0.010 A 
HETATM    3  CD2 570 D 200      47.423 -38.167  15.374  1.00 35.34     0.010 A 
HETATM    4  CE1 570 D 200      47.295 -39.357  17.977  1.00 35.68     0.037 A 
HETATM    5  CE2 570 D 200      46.507 -39.216  15.614  1.00 34.88     0.037 A 
HETATM    6  CZ  570 D 200      46.430 -39.836  16.943  1.00 35.98     0.068 A 
ENDROOT
BRANCH   1   7
HETATM    7  CB  570 D 200      49.285 -36.573  16.208  1.00 34.81     0.074 C 
BRANCH   7   8
HETATM    8  CA  570 D 200      48.644 -35.153  16.109  1.00 35.38     0.187 C 
BRANCH   8   9
HETATM    9  N   570 D 200      47.691 -34.853  17.241  1.00 36.24    -0.375 N 
ATOM     10  HN  570 D 200      47.654 -33.864  17.488  1.00  0.00     0.160 HD
BRANCH   9  11
HETATM   11  C1A 570 D 200      46.811 -35.687  18.056  1.00 37.40     0.043 A 
HETATM   12  C1F 570 D 200      47.133 -35.985  19.456  1.00 39.24     0.041 A 
HETATM   13  C1E 570 D 200      46.203 -36.817  20.183  1.00 39.11     0.018 A 
HETATM   14  C1D 570 D 200      45.032 -37.327  19.575  1.00 38.73     0.001 A 
HETATM   15  C1C 570 D 200      44.740 -37.031  18.231  1.00 38.13     0.002 A 
HETATM   16  C1B 570 D 200      45.605 -36.230  17.483  1.00 36.97     0.030 A 
BRANCH  12  17
HETATM   17  C1G 570 D 200      48.405 -35.479  20.259  1.00 41.38     0.194 C 
HETATM   18  O1G 570 D 200      48.501 -35.845  21.449  1.00 42.16    -0.287 OA
BRANCH  17  19
HETATM   19  C1H 570 D 200      49.598 -34.656  19.799  1.00 42.73     0.015 A 
HETATM   20  C1I 570 D 200      50.933 -35.203  19.909  1.00 44.25     0.015 A 
HETATM   21  C1J 570 D 200      52.063 -34.448  19.481  1.00 44.58     0.001 A 
HETATM   22  C1K 570 D 200      51.875 -33.143  18.938  1.00 44.26     0.000 A 
HETATM   23  C1L 570 D 200      50.565 -32.596  18.826  1.00 44.32     0.001 A 
HETATM   24  C1M 570 D 200      49.439 -33.344  19.252  1.00 43.55     0.015 A 
ENDBRANCH  17  19
ENDBRANCH  12  17
ENDBRANCH   9  11
ENDBRANCH   8   9
BRANCH   8  25
HETATM   25  C   570 D 200      47.986 -34.960  14.771  1.00 34.52     0.197 C 
HETATM   26  O2  570 D 200      46.736 -35.061  14.729  1.00 34.47    -0.646 OA
HETATM   27  O1  570 D 200      48.712 -34.774  13.741  1.00 33.12    -0.646 OA
ENDBRANCH   8  25
ENDBRANCH   7   8
ENDBRANCH   1   7
BRANCH   6  28
HETATM   28  OH  570 D 200      45.556 -40.896  17.329  1.00 36.39    -0.351 OA
BRANCH  28  29
HETATM   29  C3A 570 D 200      45.564 -41.395  18.688  1.00 37.03     0.181 C 
BRANCH  29  30
HETATM   30  C3B 570 D 200      46.977 -41.924  18.997  1.00 36.82     0.086 C 
BRANCH  30  31
HETATM   31  C3C 570 D 200      47.581 -42.791  17.839  1.00 37.38     0.043 A 
HETATM   32  N3H 570 D 200      48.240 -42.204  16.781  1.00 37.12    -0.337 N 
HETATM   33  C3G 570 D 200      48.654 -43.244  15.916  1.00 38.63     0.158 A 
ATOM     34  H3H 570 D 200      48.399 -41.205  16.646  1.00  0.00     0.168 HD
HETATM   35  O3F 570 D 200      48.219 -44.416  16.523  1.00 39.12    -0.296 OA
HETATM   36  C3I 570 D 200      49.346 -43.090  14.715  1.00 38.84     0.015 A 
HETATM   37  C3D 570 D 200      47.541 -44.225  17.708  1.00 38.13     0.074 A 
HETATM   38  C3E 570 D 200      46.913 -45.272  18.636  1.00 38.01     0.079 C 
HETATM   39  C3N 570 D 200      49.725 -41.795  14.200  1.00 39.01     0.016 A 
HETATM   40  C3J 570 D 200      49.688 -44.262  13.962  1.00 40.05     0.016 A 
HETATM   41  C3M 570 D 200      50.424 -41.696  12.969  1.00 39.51     0.001 A 
HETATM   42  C3L 570 D 200      50.753 -42.868  12.240  1.00 39.34     0.000 A 
HETATM   43  C3K 570 D 200      50.388 -44.150  12.735  1.00 39.52     0.001 A 
ENDBRANCH  30  31
ENDBRANCH  29  30
ENDBRANCH  28  29
ENDBRANCH   6  28
TORSDOF 11
