REMARK  11 active torsions:
REMARK  status: ('A' for Active; 'I' for Inactive)
REMARK    1  A    between atoms: N_1  and  CA_3 
REMARK    2  A    between atoms: N_1  and  C1A_12 
REMARK    3  A    between atoms: CA_3  and  CB_4 
REMARK    4  A    between atoms: CA_3  and  C_43 
REMARK    5  A    between atoms: CB_4  and  CG_5 
REMARK    6  A    between atoms: CZ_10  and  OH_11 
REMARK    7  A    between atoms: OH_11  and  C3A_39 
REMARK    8  A    between atoms: C1F_13  and  C1G_24 
REMARK    9  A    between atoms: C1H_18  and  C1G_24 
REMARK   10  A    between atoms: C3C_30  and  C3B_40 
REMARK   11  A    between atoms: C3A_39  and  C3B_40 
ROOT
HETATM    1  CG  570 D 200      46.154 -42.959  18.389  1.00 34.93    -0.056 A 
HETATM    2  CD1 570 D 200      45.209 -41.981  17.934  1.00 36.13     0.010 A 
HETATM    3  CD2 570 D 200      47.378 -42.542  19.008  1.00 35.34     0.010 A 
HETATM    4  CE1 570 D 200      45.473 -40.607  18.093  1.00 35.68     0.037 A 
HETATM    5  CE2 570 D 200      47.652 -41.165  19.172  1.00 34.88     0.037 A 
HETATM    6  CZ  570 D 200      46.686 -40.162  18.708  1.00 35.98     0.068 A 
ENDROOT
BRANCH   1   7
HETATM    7  CB  570 D 200      45.820 -44.442  18.193  1.00 34.81     0.074 C 
BRANCH   7   8
HETATM    8  CA  570 D 200      46.334 -45.048  16.850  1.00 35.38     0.187 C 
BRANCH   8   9
HETATM    9  N   570 D 200      47.384 -44.194  16.179  1.00 36.24    -0.375 N 
ATOM     10  HN  570 D 200      47.848 -43.548  16.817  1.00  0.00     0.160 HD
BRANCH   9  11
HETATM   11  C1A 570 D 200      47.871 -44.103  14.805  1.00 37.40     0.043 A 
HETATM   12  C1F 570 D 200      48.122 -42.801  14.176  1.00 39.24     0.041 A 
HETATM   13  C1E 570 D 200      48.605 -42.810  12.815  1.00 39.11     0.018 A 
HETATM   14  C1D 570 D 200      48.825 -44.018  12.114  1.00 38.73     0.001 A 
HETATM   15  C1C 570 D 200      48.578 -45.257  12.733  1.00 38.13     0.002 A 
HETATM   16  C1B 570 D 200      48.113 -45.305  14.049  1.00 36.97     0.030 A 
BRANCH  12  17
HETATM   17  C1G 570 D 200      47.920 -41.376  14.845  1.00 41.38     0.194 C 
HETATM   18  O1G 570 D 200      48.399 -41.217  15.987  1.00 42.16    -0.287 OA
BRANCH  17  19
HETATM   19  C1H 570 D 200      47.283 -40.110  14.293  1.00 42.73     0.015 A 
HETATM   20  C1I 570 D 200      46.315 -39.389  15.089  1.00 44.25     0.015 A 
HETATM   21  C1J 570 D 200      45.709 -38.199  14.591  1.00 44.58     0.001 A 
HETATM   22  C1K 570 D 200      46.062 -37.717  13.296  1.00 44.26     0.000 A 
HETATM   23  C1L 570 D 200      47.014 -38.421  12.505  1.00 44.32     0.001 A 
HETATM   24  C1M 570 D 200      47.617 -39.604  12.998  1.00 43.55     0.015 A 
ENDBRANCH  17  19
ENDBRANCH  12  17
ENDBRANCH   9  11
ENDBRANCH   8   9
BRANCH   8  25
HETATM   25  C   570 D 200      45.185 -45.335  15.924  1.00 34.52     0.197 C 
HETATM   26  O2  570 D 200      44.034 -45.333  16.423  1.00 34.47    -0.646 OA
HETATM   27  O1  570 D 200      45.425 -45.631  14.708  1.00 33.12    -0.646 OA
ENDBRANCH   8  25
ENDBRANCH   7   8
ENDBRANCH   1   7
BRANCH   6  28
HETATM   28  OH  570 D 200      46.829 -38.745  18.808  1.00 36.39    -0.351 OA
BRANCH  28  29
HETATM   29  C3A 570 D 200      46.920 -37.931  17.614  1.00 37.03     0.181 C 
BRANCH  29  30
HETATM   30  C3B 570 D 200      48.384 -37.945  17.135  1.00 36.82     0.086 C 
BRANCH  30  31
HETATM   31  C3C 570 D 200      49.088 -36.549  17.252  1.00 37.38     0.043 A 
HETATM   32  N3H 570 D 200      50.124 -36.347  18.137  1.00 37.12    -0.337 N 
HETATM   33  C3G 570 D 200      50.532 -34.999  18.005  1.00 38.63     0.158 A 
ATOM     34  H3H 570 D 200      50.523 -37.040  18.770  1.00  0.00     0.168 HD
HETATM   35  O3F 570 D 200      49.706 -34.464  17.023  1.00 39.12    -0.296 OA
HETATM   36  C3I 570 D 200      51.547 -34.371  18.726  1.00 38.84     0.015 A 
HETATM   37  C3D 570 D 200      48.781 -35.351  16.513  1.00 38.13     0.074 A 
HETATM   38  C3E 570 D 200      47.713 -35.113  15.439  1.00 38.01     0.079 C 
HETATM   39  C3N 570 D 200      52.320 -35.058  19.733  1.00 39.01     0.016 A 
HETATM   40  C3J 570 D 200      51.827 -32.989  18.460  1.00 40.05     0.016 A 
HETATM   41  C3M 570 D 200      53.339 -34.368  20.441  1.00 39.51     0.001 A 
HETATM   42  C3L 570 D 200      53.601 -33.002  20.162  1.00 39.34     0.000 A 
HETATM   43  C3K 570 D 200      52.848 -32.312  19.172  1.00 39.52     0.001 A 
ENDBRANCH  30  31
ENDBRANCH  29  30
ENDBRANCH  28  29
ENDBRANCH   6  28
TORSDOF 11
