REMARK  11 active torsions:
REMARK  status: ('A' for Active; 'I' for Inactive)
REMARK    1  A    between atoms: N_1  and  CA_3 
REMARK    2  A    between atoms: N_1  and  C1A_12 
REMARK    3  A    between atoms: CA_3  and  CB_4 
REMARK    4  A    between atoms: CA_3  and  C_43 
REMARK    5  A    between atoms: CB_4  and  CG_5 
REMARK    6  A    between atoms: CZ_10  and  OH_11 
REMARK    7  A    between atoms: OH_11  and  C3A_39 
REMARK    8  A    between atoms: C1F_13  and  C1G_24 
REMARK    9  A    between atoms: C1H_18  and  C1G_24 
REMARK   10  A    between atoms: C3C_30  and  C3B_40 
REMARK   11  A    between atoms: C3A_39  and  C3B_40 
ROOT
HETATM    1  CG  570 D 200      47.935 -36.841  16.977  1.00 34.93    -0.056 A 
HETATM    2  CD1 570 D 200      46.511 -36.978  17.081  1.00 36.13     0.010 A 
HETATM    3  CD2 570 D 200      48.762 -38.007  16.863  1.00 35.34     0.010 A 
HETATM    4  CE1 570 D 200      45.914 -38.253  17.070  1.00 35.68     0.037 A 
HETATM    5  CE2 570 D 200      48.172 -39.291  16.852  1.00 34.88     0.037 A 
HETATM    6  CZ  570 D 200      46.715 -39.433  16.957  1.00 35.98     0.068 A 
ENDROOT
BRANCH   1   7
HETATM    7  CB  570 D 200      48.536 -35.431  16.993  1.00 34.81     0.074 C 
BRANCH   7   8
HETATM    8  CA  570 D 200      48.191 -34.597  18.267  1.00 35.38     0.187 C 
BRANCH   8   9
HETATM    9  N   570 D 200      49.413 -34.169  19.044  1.00 36.24    -0.375 N 
ATOM     10  HN  570 D 200      50.225 -33.989  18.454  1.00  0.00     0.160 HD
BRANCH   9  11
HETATM   11  C1A 570 D 200      49.672 -33.961  20.466  1.00 37.40     0.043 A 
HETATM   12  C1F 570 D 200      50.943 -34.373  21.072  1.00 39.24     0.041 A 
HETATM   13  C1E 570 D 200      51.110 -34.124  22.485  1.00 39.11     0.018 A 
HETATM   14  C1D 570 D 200      50.094 -33.512  23.255  1.00 38.73     0.001 A 
HETATM   15  C1C 570 D 200      48.881 -33.124  22.657  1.00 38.13     0.002 A 
HETATM   16  C1B 570 D 200      48.669 -33.340  21.294  1.00 36.97     0.030 A 
BRANCH  12  17
HETATM   17  C1G 570 D 200      52.163 -35.064  20.328  1.00 41.38     0.194 C 
HETATM   18  O1G 570 D 200      51.931 -35.552  19.203  1.00 42.16    -0.287 OA
BRANCH  17  19
HETATM   19  C1H 570 D 200      53.625 -35.180  20.730  1.00 42.73     0.015 A 
HETATM   20  C1I 570 D 200      53.970 -35.473  22.104  1.00 44.25     0.015 A 
HETATM   21  C1J 570 D 200      55.334 -35.588  22.499  1.00 44.58     0.001 A 
HETATM   22  C1K 570 D 200      56.367 -35.413  21.531  1.00 44.26     0.000 A 
HETATM   23  C1L 570 D 200      56.036 -35.123  20.177  1.00 44.32     0.001 A 
HETATM   24  C1M 570 D 200      54.681 -35.008  19.781  1.00 43.55     0.015 A 
ENDBRANCH  17  19
ENDBRANCH  12  17
ENDBRANCH   9  11
ENDBRANCH   8   9
BRANCH   8  25
HETATM   25  C   570 D 200      47.218 -35.340  19.139  1.00 34.52     0.197 C 
HETATM   26  O2  570 D 200      47.685 -36.239  19.880  1.00 34.47    -0.646 OA
HETATM   27  O1  570 D 200      45.974 -35.081  19.044  1.00 33.12    -0.646 OA
ENDBRANCH   8  25
ENDBRANCH   7   8
ENDBRANCH   1   7
BRANCH   6  28
HETATM   28  OH  570 D 200      45.985 -40.661  16.957  1.00 36.39    -0.351 OA
BRANCH  28  29
HETATM   29  C3A 570 D 200      45.491 -41.220  18.198  1.00 37.03     0.181 C 
BRANCH  29  30
HETATM   30  C3B 570 D 200      46.685 -41.830  18.957  1.00 36.82     0.086 C 
BRANCH  30  31
HETATM   31  C3C 570 D 200      47.598 -42.731  18.057  1.00 37.38     0.043 A 
HETATM   32  N3H 570 D 200      48.019 -42.301  16.817  1.00 37.12    -0.337 N 
HETATM   33  C3G 570 D 200      48.813 -43.332  16.263  1.00 38.63     0.158 A 
ATOM     34  H3H 570 D 200      47.799 -41.405  16.381  1.00  0.00     0.168 HD
HETATM   35  O3F 570 D 200      48.829 -44.335  17.225  1.00 39.12    -0.296 OA
HETATM   36  C3I 570 D 200      49.430 -43.315  15.012  1.00 38.84     0.015 A 
HETATM   37  C3D 570 D 200      48.096 -44.048  18.357  1.00 38.13     0.074 A 
HETATM   38  C3E 570 D 200      47.879 -44.913  19.606  1.00 38.01     0.079 C 
HETATM   39  C3N 570 D 200      49.314 -42.196  14.107  1.00 39.01     0.016 A 
HETATM   40  C3J 570 D 200      50.203 -44.455  14.610  1.00 40.05     0.016 A 
HETATM   41  C3M 570 D 200      49.959 -42.234  12.843  1.00 39.51     0.001 A 
HETATM   42  C3L 570 D 200      50.719 -43.371  12.465  1.00 39.34     0.000 A 
HETATM   43  C3K 570 D 200      50.843 -44.480  13.346  1.00 39.52     0.001 A 
ENDBRANCH  30  31
ENDBRANCH  29  30
ENDBRANCH  28  29
ENDBRANCH   6  28
TORSDOF 11
