REMARK  11 active torsions:
REMARK  status: ('A' for Active; 'I' for Inactive)
REMARK    1  A    between atoms: N_1  and  CA_3 
REMARK    2  A    between atoms: N_1  and  C1A_12 
REMARK    3  A    between atoms: CA_3  and  CB_4 
REMARK    4  A    between atoms: CA_3  and  C_43 
REMARK    5  A    between atoms: CB_4  and  CG_5 
REMARK    6  A    between atoms: CZ_10  and  OH_11 
REMARK    7  A    between atoms: OH_11  and  C3A_39 
REMARK    8  A    between atoms: C1F_13  and  C1G_24 
REMARK    9  A    between atoms: C1H_18  and  C1G_24 
REMARK   10  A    between atoms: C3C_30  and  C3B_40 
REMARK   11  A    between atoms: C3A_39  and  C3B_40 
ROOT
HETATM    1  CG  570 D 200      47.985 -38.535  17.550  1.00 34.93    -0.056 A 
HETATM    2  CD1 570 D 200      49.022 -38.034  16.698  1.00 36.13     0.010 A 
HETATM    3  CD2 570 D 200      46.878 -37.695  17.904  1.00 35.34     0.010 A 
HETATM    4  CE1 570 D 200      48.964 -36.718  16.200  1.00 35.68     0.037 A 
HETATM    5  CE2 570 D 200      46.810 -36.373  17.410  1.00 34.88     0.037 A 
HETATM    6  CZ  570 D 200      47.871 -35.858  16.536  1.00 35.98     0.068 A 
ENDROOT
BRANCH   1   7
HETATM    7  CB  570 D 200      48.094 -39.975  18.065  1.00 34.81     0.074 C 
BRANCH   7   8
HETATM    8  CA  570 D 200      46.905 -40.898  17.655  1.00 35.38     0.187 C 
BRANCH   8   9
HETATM    9  N   570 D 200      46.549 -40.791  16.191  1.00 36.24    -0.375 N 
ATOM     10  HN  570 D 200      46.287 -41.682  15.772  1.00  0.00     0.160 HD
BRANCH   9  11
HETATM   11  C1A 570 D 200      46.503 -39.672  15.252  1.00 37.40     0.043 A 
HETATM   12  C1F 570 D 200      47.379 -39.635  14.076  1.00 39.24     0.041 A 
HETATM   13  C1E 570 D 200      47.261 -38.491  13.203  1.00 39.11     0.018 A 
HETATM   14  C1D 570 D 200      46.343 -37.447  13.468  1.00 38.73     0.001 A 
HETATM   15  C1C 570 D 200      45.512 -37.499  14.602  1.00 38.13     0.002 A 
HETATM   16  C1B 570 D 200      45.584 -38.584  15.478  1.00 36.97     0.030 A 
BRANCH  12  17
HETATM   17  C1G 570 D 200      48.445 -40.734  13.659  1.00 41.38     0.194 C 
HETATM   18  O1G 570 D 200      49.055 -40.548  12.586  1.00 42.16    -0.287 OA
BRANCH  17  19
HETATM   19  C1H 570 D 200      48.917 -41.978  14.395  1.00 42.73     0.015 A 
HETATM   20  C1I 570 D 200      47.958 -42.988  14.785  1.00 44.25     0.015 A 
HETATM   21  C1J 570 D 200      48.381 -44.162  15.472  1.00 44.58     0.001 A 
HETATM   22  C1K 570 D 200      49.762 -44.342  15.778  1.00 44.26     0.000 A 
HETATM   23  C1L 570 D 200      50.714 -43.352  15.399  1.00 44.32     0.001 A 
HETATM   24  C1M 570 D 200      50.296 -42.184  14.715  1.00 43.55     0.015 A 
ENDBRANCH  17  19
ENDBRANCH  12  17
ENDBRANCH   9  11
ENDBRANCH   8   9
BRANCH   8  25
HETATM   25  C   570 D 200      45.710 -40.645  18.531  1.00 34.52     0.197 C 
HETATM   26  O2  570 D 200      45.810 -39.730  19.384  1.00 34.47    -0.646 OA
HETATM   27  O1  570 D 200      44.688 -41.398  18.422  1.00 33.12    -0.646 OA
ENDBRANCH   8  25
ENDBRANCH   7   8
ENDBRANCH   1   7
BRANCH   6  28
HETATM   28  OH  570 D 200      47.933 -34.551  15.965  1.00 36.39    -0.351 OA
BRANCH  28  29
HETATM   29  C3A 570 D 200      49.055 -33.680  16.247  1.00 37.03     0.181 C 
BRANCH  29  30
HETATM   30  C3B 570 D 200      48.857 -33.082  17.653  1.00 36.82     0.086 C 
BRANCH  30  31
HETATM   31  C3C 570 D 200      49.614 -33.873  18.775  1.00 37.38     0.043 A 
HETATM   32  N3H 570 D 200      50.985 -33.803  18.893  1.00 37.12    -0.337 N 
HETATM   33  C3G 570 D 200      51.355 -34.623  19.984  1.00 38.63     0.158 A 
ATOM     34  H3H 570 D 200      51.616 -33.260  18.303  1.00  0.00     0.168 HD
HETATM   35  O3F 570 D 200      50.160 -35.141  20.471  1.00 39.12    -0.296 OA
HETATM   36  C3I 570 D 200      52.653 -34.847  20.444  1.00 38.84     0.015 A 
HETATM   37  C3D 570 D 200      49.040 -34.735  19.776  1.00 38.13     0.074 A 
HETATM   38  C3E 570 D 200      47.572 -35.110  20.017  1.00 38.01     0.079 C 
HETATM   39  C3N 570 D 200      53.809 -34.244  19.825  1.00 39.01     0.016 A 
HETATM   40  C3J 570 D 200      52.843 -35.714  21.571  1.00 40.05     0.016 A 
HETATM   41  C3M 570 D 200      55.107 -34.510  20.331  1.00 39.51     0.001 A 
HETATM   42  C3L 570 D 200      55.274 -35.371  21.446  1.00 39.34     0.000 A 
HETATM   43  C3K 570 D 200      54.146 -35.971  22.068  1.00 39.52     0.001 A 
ENDBRANCH  30  31
ENDBRANCH  29  30
ENDBRANCH  28  29
ENDBRANCH   6  28
TORSDOF 11
