REMARK  11 active torsions:
REMARK  status: ('A' for Active; 'I' for Inactive)
REMARK    1  A    between atoms: N_1  and  CA_3 
REMARK    2  A    between atoms: N_1  and  C1A_12 
REMARK    3  A    between atoms: CA_3  and  CB_4 
REMARK    4  A    between atoms: CA_3  and  C_43 
REMARK    5  A    between atoms: CB_4  and  CG_5 
REMARK    6  A    between atoms: CZ_10  and  OH_11 
REMARK    7  A    between atoms: OH_11  and  C3A_39 
REMARK    8  A    between atoms: C1F_13  and  C1G_24 
REMARK    9  A    between atoms: C1H_18  and  C1G_24 
REMARK   10  A    between atoms: C3C_30  and  C3B_40 
REMARK   11  A    between atoms: C3A_39  and  C3B_40 
ROOT
HETATM    1  CG  570 D 200      45.375 -39.048  19.226  1.00 34.93    -0.056 A 
HETATM    2  CD1 570 D 200      45.305 -38.159  18.103  1.00 36.13     0.010 A 
HETATM    3  CD2 570 D 200      45.834 -38.565  20.496  1.00 35.34     0.010 A 
HETATM    4  CE1 570 D 200      45.682 -36.809  18.237  1.00 35.68     0.037 A 
HETATM    5  CE2 570 D 200      46.215 -37.212  20.640  1.00 34.88     0.037 A 
HETATM    6  CZ  570 D 200      46.143 -36.300  19.492  1.00 35.98     0.068 A 
ENDROOT
BRANCH   1   7
HETATM    7  CB  570 D 200      44.953 -40.508  19.029  1.00 34.81     0.074 C 
BRANCH   7   8
HETATM    8  CA  570 D 200      46.139 -41.521  18.980  1.00 35.38     0.187 C 
BRANCH   8   9
HETATM    9  N   570 D 200      46.969 -41.401  17.725  1.00 36.24    -0.375 N 
ATOM     10  HN  570 D 200      46.951 -40.467  17.316  1.00  0.00     0.160 HD
BRANCH   9  11
HETATM   11  C1A 570 D 200      47.794 -42.346  16.976  1.00 37.40     0.043 A 
HETATM   12  C1F 570 D 200      48.041 -42.163  15.542  1.00 39.24     0.041 A 
HETATM   13  C1E 570 D 200      48.870 -43.147  14.886  1.00 39.11     0.018 A 
HETATM   14  C1D 570 D 200      49.420 -44.243  15.592  1.00 38.73     0.001 A 
HETATM   15  C1C 570 D 200      49.171 -44.403  16.967  1.00 38.13     0.002 A 
HETATM   16  C1B 570 D 200      48.378 -43.478  17.650  1.00 36.97     0.030 A 
BRANCH  12  17
HETATM   17  C1G 570 D 200      47.491 -40.985  14.632  1.00 41.38     0.194 C 
HETATM   18  O1G 570 D 200      46.987 -41.307  13.537  1.00 42.16    -0.287 OA
BRANCH  17  19
HETATM   19  C1H 570 D 200      47.408 -39.490  14.900  1.00 42.73     0.015 A 
HETATM   20  C1I 570 D 200      48.154 -38.915  15.997  1.00 44.25     0.015 A 
HETATM   21  C1J 570 D 200      48.091 -37.516  16.263  1.00 44.58     0.001 A 
HETATM   22  C1K 570 D 200      47.285 -36.678  15.438  1.00 44.26     0.000 A 
HETATM   23  C1L 570 D 200      46.545 -37.235  14.357  1.00 44.32     0.001 A 
HETATM   24  C1M 570 D 200      46.606 -38.625  14.091  1.00 43.55     0.015 A 
ENDBRANCH  17  19
ENDBRANCH  12  17
ENDBRANCH   9  11
ENDBRANCH   8   9
BRANCH   8  25
HETATM   25  C   570 D 200      45.644 -42.926  19.179  1.00 34.52     0.197 C 
HETATM   26  O2  570 D 200      44.892 -43.399  18.292  1.00 34.47    -0.646 OA
HETATM   27  O1  570 D 200      45.944 -43.547  20.251  1.00 33.12    -0.646 OA
ENDBRANCH   8  25
ENDBRANCH   7   8
ENDBRANCH   1   7
BRANCH   6  28
HETATM   28  OH  570 D 200      46.492 -34.916  19.492  1.00 36.39    -0.351 OA
BRANCH  28  29
HETATM   29  C3A 570 D 200      47.715 -34.468  18.860  1.00 37.03     0.181 C 
BRANCH  29  30
HETATM   30  C3B 570 D 200      48.572 -35.709  18.542  1.00 36.82     0.086 C 
BRANCH  30  31
HETATM   31  C3C 570 D 200      50.113 -35.429  18.601  1.00 37.38     0.043 A 
HETATM   32  N3H 570 D 200      50.820 -35.584  19.774  1.00 37.12    -0.337 N 
HETATM   33  C3G 570 D 200      52.168 -35.253  19.498  1.00 38.63     0.158 A 
ATOM     34  H3H 570 D 200      50.442 -35.882  20.673  1.00  0.00     0.168 HD
HETATM   35  O3F 570 D 200      52.191 -34.921  18.148  1.00 39.12    -0.296 OA
HETATM   36  C3I 570 D 200      53.222 -35.263  20.412  1.00 38.84     0.015 A 
HETATM   37  C3D 570 D 200      50.965 -34.995  17.524  1.00 38.13     0.074 A 
HETATM   38  C3E 570 D 200      50.612 -34.692  16.062  1.00 38.01     0.079 C 
HETATM   39  C3N 570 D 200      53.041 -35.623  21.798  1.00 39.01     0.016 A 
HETATM   40  C3J 570 D 200      54.532 -34.897  19.955  1.00 40.05     0.016 A 
HETATM   41  C3M 570 D 200      54.148 -35.612  22.686  1.00 39.51     0.001 A 
HETATM   42  C3L 570 D 200      55.436 -35.246  22.214  1.00 39.34     0.000 A 
HETATM   43  C3K 570 D 200      55.629 -34.891  20.852  1.00 39.52     0.001 A 
ENDBRANCH  30  31
ENDBRANCH  29  30
ENDBRANCH  28  29
ENDBRANCH   6  28
TORSDOF 11
