OHT.pdb
  rDOCK(R)          3D
libRbt.so/2013.1/901 2013/11/27
 30 32  0  0  0  0  0  0  0  0999 V2000
   68.2092   33.8499   78.9632 C   0  0  0  0  0  0
   67.6550   34.7321   80.0479 C   0  0  0  0  0  0
   68.6909   35.6969   80.5867 C   0  0  0  0  0  0
   68.5164   37.0987   80.0979 C   0  0  0  0  0  0
   67.5753   37.9594   80.7017 C   0  0  0  0  0  0
   67.4485   39.2822   80.2765 C   0  0  0  0  0  0
   68.2348   39.7801   79.2562 C   0  0  0  0  0  0
   69.1559   38.9550   78.6558 C   0  0  0  0  0  0
   69.2941   37.6269   79.0747 C   0  0  0  0  0  0
   69.6859   35.3101   81.4382 C   0  0  0  0  0  0
   69.9601   33.8743   81.8134 C   0  0  0  0  0  0
   69.2155   33.2071   82.8355 C   0  0  0  0  0  0
   69.5259   31.8892   83.2006 C   0  0  0  0  0  0
   70.5823   31.2260   82.5480 C   0  0  0  0  0  0
   70.8778   29.9528   82.9343 O   0  0  0  0  0  0
   71.3233   31.8746   81.5341 C   0  0  0  0  0  0
   71.0007   33.1808   81.1881 C   0  0  0  0  0  0
   70.5831   36.2693   82.0895 C   0  0  0  0  0  0
   71.7328   36.7387   81.4588 C   0  0  0  0  0  0
   72.5674   37.6513   82.0400 C   0  0  0  0  0  0
   72.2706   38.1389   83.3026 C   0  0  0  0  0  0
   73.0302   39.0784   83.9389 O   0  0  0  0  0  0
   73.3999   40.2734   83.2576 C   0  0  0  0  0  0
   72.1294   41.0470   83.0302 C   0  0  0  0  0  0
   72.3382   42.3388   82.4357 N   0  0  0  0  0  0
   71.2918   42.6631   81.4652 C   0  0  0  0  0  0
   72.3259   43.3683   83.4813 C   0  0  0  0  0  0
   71.1199   37.6854   83.9706 C   0  0  0  0  0  0
   70.3017   36.7721   83.3670 C   0  0  0  0  0  0
   70.3866   29.5453   83.6203 H   0  0  0  0  0  0
  1  2  1  0  0  0
  2  3  1  0  0  0
  3  4  1  0  0  0
  3 10  1  0  0  0
  4  5  2  0  0  0
  4  9  1  0  0  0
  5  6  1  0  0  0
  6  7  2  0  0  0
  7  8  1  0  0  0
  8  9  2  0  0  0
 10 11  1  0  0  0
 10 18  1  0  0  0
 11 12  2  0  0  0
 11 17  1  0  0  0
 12 13  1  0  0  0
 13 14  2  0  0  0
 14 15  1  0  0  0
 14 16  1  0  0  0
 15 30  1  0  0  0
 16 17  2  0  0  0
 18 19  2  0  0  0
 18 29  1  0  0  0
 19 20  1  0  0  0
 20 21  2  0  0  0
 21 22  1  0  0  0
 21 28  1  0  0  0
 22 23  1  0  0  0
 23 24  1  0  0  0
 24 25  1  0  0  0
 25 26  1  0  0  0
 25 27  1  0  0  0
 28 29  2  0  0  0
M  END
>  <CHROM.0>
115.05082865,-59.90948032,-142.56834080,-0.31079044

>  <CHROM.1>
104.02711996,81.24104007,7.06992529,-82.25746422,-85.33960997,-0.39161739
49.68764611,66.72991694,175.59981957,141.86654854,70.38521829,36.85387031
81.71660318,1.84221593,0.74736473,3.01389374

>  <FORMUL>
      OHT    C26 H29 N1 O2

>  <HET>
 OHT  A 600      29

>  <HETNAM>
     OHT 4-HYDROXYTAMOXIFEN

>  <Name>
OHT.pdb

>  <RI>
0

>  <Rbt.Current_Directory>
/home/malgorzata/Desktop/rDOCK_IFD/Wyniki/5a_estrogen_receptor/IFD

>  <Rbt.Executable>
rbdock ($Id: //depot/dev/client3/rdock/2013.1/src/exe/rbdock.cxx#4 $)

>  <Rbt.Library>
libRbt.so (2013.1, Build901 2013/11/27)

>  <Rbt.Parameter_File>
/home/malgorzata/Desktop/rDock_2013.1_src/data/scripts/hard_docking.prm

>  <Rbt.Receptor>
cavity.prm

>  <SCORE>
-7.79699

>  <SCORE.INTER>
-2.43582

>  <SCORE.INTER.CONST>
1

>  <SCORE.INTER.POLAR>
0

>  <SCORE.INTER.REPUL>
0

>  <SCORE.INTER.ROT>
9

>  <SCORE.INTER.VDW>
-16.8358

>  <SCORE.INTER.norm>
-0.0839938

>  <SCORE.INTRA>
-5.37139

>  <SCORE.INTRA.DIHEDRAL>
-2.9571

>  <SCORE.INTRA.DIHEDRAL.0>
14.7815

>  <SCORE.INTRA.POLAR>
0

>  <SCORE.INTRA.POLAR.0>
0

>  <SCORE.INTRA.REPUL>
0

>  <SCORE.INTRA.REPUL.0>
0

>  <SCORE.INTRA.VDW>
-3.89284

>  <SCORE.INTRA.VDW.0>
-0.0652974

>  <SCORE.INTRA.norm>
-0.18522

>  <SCORE.RESTR>
0.736224

>  <SCORE.RESTR.CAVITY>
0.736224

>  <SCORE.RESTR.norm>
0.025387

>  <SCORE.SYSTEM>
-0.72601

>  <SCORE.SYSTEM.CONST>
0

>  <SCORE.SYSTEM.DIHEDRAL>
0.759412

>  <SCORE.SYSTEM.VDW>
-1.10572

>  <SCORE.SYSTEM.norm>
-0.0250348

>  <SCORE.heavy>
29

>  <SCORE.norm>
-0.268862

$$$$
OHT.pdb
  rDOCK(R)          3D
libRbt.so/2013.1/901 2013/11/27
 30 32  0  0  0  0  0  0  0  0999 V2000
   68.1078   33.7210   83.7444 C   0  0  0  0  0  0
   69.4721   34.3542   83.7394 C   0  0  0  0  0  0
   69.9932   34.5807   82.3354 C   0  0  0  0  0  0
   71.1287   33.6818   81.9649 C   0  0  0  0  0  0
   72.4505   33.9987   82.3437 C   0  0  0  0  0  0
   73.5024   33.1341   82.0395 C   0  0  0  0  0  0
   73.2785   31.9526   81.3603 C   0  0  0  0  0  0
   71.9972   31.6288   80.9825 C   0  0  0  0  0  0
   70.9333   32.4867   81.2835 C   0  0  0  0  0  0
   69.4670   35.5210   81.4966 C   0  0  0  0  0  0
   69.4204   36.9962   81.8114 C   0  0  0  0  0  0
   68.1909   37.6668   82.0994 C   0  0  0  0  0  0
   68.1696   39.0487   82.3369 C   0  0  0  0  0  0
   69.3759   39.7729   82.2892 C   0  0  0  0  0  0
   69.3267   41.1179   82.5036 O   0  0  0  0  0  0
   70.5976   39.1199   82.0083 C   0  0  0  0  0  0
   70.5969   37.7506   81.7747 C   0  0  0  0  0  0
   68.8747   35.1777   80.2003 C   0  0  0  0  0  0
   69.3110   35.7704   79.0178 C   0  0  0  0  0  0
   68.7881   35.4450   77.7980 C   0  0  0  0  0  0
   67.7877   34.4896   77.7184 C   0  0  0  0  0  0
   67.2371   34.0800   76.5379 O   0  0  0  0  0  0
   67.7002   34.6316   75.3089 C   0  0  0  0  0  0
   69.0979   34.1122   75.1064 C   0  0  0  0  0  0
   69.2104   32.6864   75.2479 N   0  0  0  0  0  0
   69.0747   32.0027   73.9609 C   0  0  0  0  0  0
   70.5251   32.3506   75.8067 C   0  0  0  0  0  0
   67.3203   33.8724   78.8917 C   0  0  0  0  0  0
   67.8602   34.2161   80.0993 C   0  0  0  0  0  0
   70.1049   41.6338   82.4240 H   0  0  0  0  0  0
  1  2  1  0  0  0
  2  3  1  0  0  0
  3  4  1  0  0  0
  3 10  1  0  0  0
  4  5  2  0  0  0
  4  9  1  0  0  0
  5  6  1  0  0  0
  6  7  2  0  0  0
  7  8  1  0  0  0
  8  9  2  0  0  0
 10 11  1  0  0  0
 10 18  1  0  0  0
 11 12  2  0  0  0
 11 17  1  0  0  0
 12 13  1  0  0  0
 13 14  2  0  0  0
 14 15  1  0  0  0
 14 16  1  0  0  0
 15 30  1  0  0  0
 16 17  2  0  0  0
 18 19  2  0  0  0
 18 29  1  0  0  0
 19 20  1  0  0  0
 20 21  2  0  0  0
 21 22  1  0  0  0
 21 28  1  0  0  0
 22 23  1  0  0  0
 23 24  1  0  0  0
 24 25  1  0  0  0
 25 26  1  0  0  0
 25 27  1  0  0  0
 28 29  2  0  0  0
M  END
>  <CHROM.0>
130.11932121,-59.90948032,86.10452280,179.50047116

>  <CHROM.1>
-109.63396896,-82.89491949,59.16856566,-109.62747257,-125.00359211,-176.10377905
0.67558665,69.09124493,50.54177248,93.02363336,69.58484202,35.00934379,79.98829072
-1.39669070,0.98369249,-2.30282933

>  <FORMUL>
      OHT    C26 H29 N1 O2

>  <HET>
 OHT  A 600      29

>  <HETNAM>
     OHT 4-HYDROXYTAMOXIFEN

>  <Name>
OHT.pdb

>  <RI>
0

>  <Rbt.Current_Directory>
/home/malgorzata/Desktop/rDOCK_IFD/Wyniki/5a_estrogen_receptor/IFD

>  <Rbt.Executable>
rbdock ($Id: //depot/dev/client3/rdock/2013.1/src/exe/rbdock.cxx#4 $)

>  <Rbt.Library>
libRbt.so (2013.1, Build901 2013/11/27)

>  <Rbt.Parameter_File>
/home/malgorzata/Desktop/rDock_2013.1_src/data/scripts/hard_docking.prm

>  <Rbt.Receptor>
cavity.prm

>  <SCORE>
-10.4726

>  <SCORE.INTER>
-3.19359

>  <SCORE.INTER.CONST>
1

>  <SCORE.INTER.POLAR>
0

>  <SCORE.INTER.REPUL>
0

>  <SCORE.INTER.ROT>
9

>  <SCORE.INTER.VDW>
-17.5936

>  <SCORE.INTER.norm>
-0.110124

>  <SCORE.INTRA>
-5.88785

>  <SCORE.INTRA.DIHEDRAL>
-6.54701

>  <SCORE.INTRA.DIHEDRAL.0>
14.7815

>  <SCORE.INTRA.POLAR>
0

>  <SCORE.INTRA.POLAR.0>
0

>  <SCORE.INTRA.REPUL>
0

>  <SCORE.INTRA.REPUL.0>
0

>  <SCORE.INTRA.VDW>
-2.61434

>  <SCORE.INTRA.VDW.0>
-0.0652974

>  <SCORE.INTRA.norm>
-0.203029

>  <SCORE.RESTR>
0

>  <SCORE.RESTR.CAVITY>
0

>  <SCORE.RESTR.norm>
0

>  <SCORE.SYSTEM>
-1.39116

>  <SCORE.SYSTEM.CONST>
0

>  <SCORE.SYSTEM.DIHEDRAL>
0.755592

>  <SCORE.SYSTEM.POLAR>
-0.279838

>  <SCORE.SYSTEM.VDW>
-0.817508

>  <SCORE.SYSTEM.norm>
-0.0479711

>  <SCORE.heavy>
29

>  <SCORE.norm>
-0.361124

$$$$
OHT.pdb
  rDOCK(R)          3D
libRbt.so/2013.1/901 2013/11/27
 30 32  0  0  0  0  0  0  0  0999 V2000
   68.3404   32.0142   85.0291 C   0  0  0  0  0  0
   69.5104   32.3891   84.1615 C   0  0  0  0  0  0
   69.1035   32.6241   82.7216 C   0  0  0  0  0  0
   69.5242   31.5305   81.7934 C   0  0  0  0  0  0
   70.8103   31.5344   81.2128 C   0  0  0  0  0  0
   71.2185   30.4876   80.3856 C   0  0  0  0  0  0
   70.3771   29.4271   80.1125 C   0  0  0  0  0  0
   69.1202   29.4078   80.6686 C   0  0  0  0  0  0
   68.6997   30.4508   81.5015 C   0  0  0  0  0  0
   68.4174   33.7349   82.3215 C   0  0  0  0  0  0
   68.0131   34.8531   83.2508 C   0  0  0  0  0  0
   66.6443   35.1009   83.5809 C   0  0  0  0  0  0
   66.2923   36.1793   84.4054 C   0  0  0  0  0  0
   67.3041   37.0194   84.9075 C   0  0  0  0  0  0
   66.9353   38.0726   85.6901 O   0  0  0  0  0  0
   68.6609   36.7823   84.5901 C   0  0  0  0  0  0
   68.9885   35.7094   83.7707 C   0  0  0  0  0  0
   67.9888   33.9395   80.9345 C   0  0  0  0  0  0
   68.7281   34.7201   80.0491 C   0  0  0  0  0  0
   68.3576   34.9019   78.7464 C   0  0  0  0  0  0
   67.2073   34.2911   78.2736 C   0  0  0  0  0  0
   66.7860   34.3906   76.9786 O   0  0  0  0  0  0
   67.7411   34.4490   75.9234 C   0  0  0  0  0  0
   68.5058   33.1537   75.9661 C   0  0  0  0  0  0
   69.6329   33.1188   75.0750 N   0  0  0  0  0  0
   70.7495   32.3631   75.6446 C   0  0  0  0  0  0
   69.2428   32.4763   73.8147 C   0  0  0  0  0  0
   66.4344   33.4982   79.1397 C   0  0  0  0  0  0
   66.8272   33.3326   80.4382 C   0  0  0  0  0  0
   66.0491   38.1499   85.9844 H   0  0  0  0  0  0
  1  2  1  0  0  0
  2  3  1  0  0  0
  3  4  1  0  0  0
  3 10  1  0  0  0
  4  5  2  0  0  0
  4  9  1  0  0  0
  5  6  1  0  0  0
  6  7  2  0  0  0
  7  8  1  0  0  0
  8  9  2  0  0  0
 10 11  1  0  0  0
 10 18  1  0  0  0
 11 12  2  0  0  0
 11 17  1  0  0  0
 12 13  1  0  0  0
 13 14  2  0  0  0
 14 15  1  0  0  0
 14 16  1  0  0  0
 15 30  1  0  0  0
 16 17  2  0  0  0
 18 19  2  0  0  0
 18 29  1  0  0  0
 19 20  1  0  0  0
 20 21  2  0  0  0
 21 22  1  0  0  0
 21 28  1  0  0  0
 22 23  1  0  0  0
 23 24  1  0  0  0
 24 25  1  0  0  0
 25 26  1  0  0  0
 25 27  1  0  0  0
 28 29  2  0  0  0
M  END
>  <CHROM.0>
142.98221350,-59.90948032,-170.21315294,-178.49122544

>  <CHROM.1>
-106.65678358,-85.79273770,1.16605250,-111.69221500,-97.47623516,9.01829463
34.87108544,62.14460290,-172.22263608,144.71983619,68.48183216,33.53710936
80.66574154,-1.90504911,1.10261222,-1.60079990

>  <FORMUL>
      OHT    C26 H29 N1 O2

>  <HET>
 OHT  A 600      29

>  <HETNAM>
     OHT 4-HYDROXYTAMOXIFEN

>  <Name>
OHT.pdb

>  <RI>
0

>  <Rbt.Current_Directory>
/home/malgorzata/Desktop/rDOCK_IFD/Wyniki/5a_estrogen_receptor/IFD

>  <Rbt.Executable>
rbdock ($Id: //depot/dev/client3/rdock/2013.1/src/exe/rbdock.cxx#4 $)

>  <Rbt.Library>
libRbt.so (2013.1, Build901 2013/11/27)

>  <Rbt.Parameter_File>
/home/malgorzata/Desktop/rDock_2013.1_src/data/scripts/hard_docking.prm

>  <Rbt.Receptor>
cavity.prm

>  <SCORE>
-7.96114

>  <SCORE.INTER>
-1.98961

>  <SCORE.INTER.CONST>
1

>  <SCORE.INTER.POLAR>
0

>  <SCORE.INTER.REPUL>
0

>  <SCORE.INTER.ROT>
9

>  <SCORE.INTER.VDW>
-16.3896

>  <SCORE.INTER.norm>
-0.0686073

>  <SCORE.INTRA>
-5.30474

>  <SCORE.INTRA.DIHEDRAL>
-4.42106

>  <SCORE.INTRA.DIHEDRAL.0>
14.7815

>  <SCORE.INTRA.POLAR>
0

>  <SCORE.INTRA.POLAR.0>
0

>  <SCORE.INTRA.REPUL>
0

>  <SCORE.INTRA.REPUL.0>
0

>  <SCORE.INTRA.VDW>
-3.09421

>  <SCORE.INTRA.VDW.0>
-0.0652974

>  <SCORE.INTRA.norm>
-0.182922

>  <SCORE.RESTR>
0.0789457

>  <SCORE.RESTR.CAVITY>
0.0789457

>  <SCORE.RESTR.norm>
0.00272226

>  <SCORE.SYSTEM>
-0.745737

>  <SCORE.SYSTEM.CONST>
0

>  <SCORE.SYSTEM.DIHEDRAL>
0.778269

>  <SCORE.SYSTEM.VDW>
-1.13487

>  <SCORE.SYSTEM.norm>
-0.0257151

>  <SCORE.heavy>
29

>  <SCORE.norm>
-0.274522

$$$$
OHT.pdb
  rDOCK(R)          3D
libRbt.so/2013.1/901 2013/11/27
 30 32  0  0  0  0  0  0  0  0999 V2000
   66.4563   35.0730   82.4886 C   0  0  0  0  0  0
   66.5687   35.3316   81.0112 C   0  0  0  0  0  0
   67.9105   34.9022   80.4551 C   0  0  0  0  0  0
   68.9139   36.0082   80.3886 C   0  0  0  0  0  0
   68.9195   36.9105   79.3038 C   0  0  0  0  0  0
   69.8250   37.9714   79.2680 C   0  0  0  0  0  0
   70.7371   38.1630   80.2871 C   0  0  0  0  0  0
   70.7466   37.2926   81.3509 C   0  0  0  0  0  0
   69.8421   36.2259   81.3996 C   0  0  0  0  0  0
   68.1670   33.6220   80.0551 C   0  0  0  0  0  0
   68.0046   32.4147   80.9459 C   0  0  0  0  0  0
   69.1308   31.6828   81.4360 C   0  0  0  0  0  0
   68.9500   30.5337   82.2192 C   0  0  0  0  0  0
   67.6431   30.1055   82.5199 C   0  0  0  0  0  0
   67.4930   28.9747   83.2657 O   0  0  0  0  0  0
   66.5223   30.8229   82.0432 C   0  0  0  0  0  0
   66.7230   31.9580   81.2680 C   0  0  0  0  0  0
   68.6469   33.2982   78.7082 C   0  0  0  0  0  0
   67.9528   33.6993   77.5693 C   0  0  0  0  0  0
   68.3976   33.4282   76.3060 C   0  0  0  0  0  0
   69.5831   32.7314   76.1359 C   0  0  0  0  0  0
   70.1166   32.4513   74.9105 O   0  0  0  0  0  0
   69.3909   32.7764   73.7287 C   0  0  0  0  0  0
   69.5978   34.2477   73.4905 C   0  0  0  0  0  0
   69.1789   34.6863   72.1875 N   0  0  0  0  0  0
   67.7516   35.0092   72.1583 C   0  0  0  0  0  0
   69.9271   35.8911   71.8108 C   0  0  0  0  0  0
   70.3090   32.3081   77.2628 C   0  0  0  0  0  0
   69.8420   32.5921   78.5154 C   0  0  0  0  0  0
   68.2476   28.4980   83.5510 H   0  0  0  0  0  0
  1  2  1  0  0  0
  2  3  1  0  0  0
  3  4  1  0  0  0
  3 10  1  0  0  0
  4  5  2  0  0  0
  4  9  1  0  0  0
  5  6  1  0  0  0
  6  7  2  0  0  0
  7  8  1  0  0  0
  8  9  2  0  0  0
 10 11  1  0  0  0
 10 18  1  0  0  0
 11 12  2  0  0  0
 11 17  1  0  0  0
 12 13  1  0  0  0
 13 14  2  0  0  0
 14 15  1  0  0  0
 14 16  1  0  0  0
 15 30  1  0  0  0
 16 17  2  0  0  0
 18 19  2  0  0  0
 18 29  1  0  0  0
 19 20  1  0  0  0
 20 21  2  0  0  0
 21 22  1  0  0  0
 21 28  1  0  0  0
 22 23  1  0  0  0
 23 24  1  0  0  0
 24 25  1  0  0  0
 25 26  1  0  0  0
 25 27  1  0  0  0
 28 29  2  0  0  0
M  END
>  <CHROM.0>
101.01581030,-59.90948032,-148.14767458,1.25114252

>  <CHROM.1>
-94.68838653,-82.70354173,-56.50177374,-109.35559258,-55.54865480,-1.00956799
-5.55665773,79.83632615,167.18472317,85.70644537,68.72358708,33.80938726
78.62459783,-2.37561576,-1.34034650,-2.11380681

>  <FORMUL>
      OHT    C26 H29 N1 O2

>  <HET>
 OHT  A 600      29

>  <HETNAM>
     OHT 4-HYDROXYTAMOXIFEN

>  <Name>
OHT.pdb

>  <RI>
0

>  <Rbt.Current_Directory>
/home/malgorzata/Desktop/rDOCK_IFD/Wyniki/5a_estrogen_receptor/IFD

>  <Rbt.Executable>
rbdock ($Id: //depot/dev/client3/rdock/2013.1/src/exe/rbdock.cxx#4 $)

>  <Rbt.Library>
libRbt.so (2013.1, Build901 2013/11/27)

>  <Rbt.Parameter_File>
/home/malgorzata/Desktop/rDock_2013.1_src/data/scripts/hard_docking.prm

>  <Rbt.Receptor>
cavity.prm

>  <SCORE>
-10.2062

>  <SCORE.INTER>
-6.99366

>  <SCORE.INTER.CONST>
1

>  <SCORE.INTER.POLAR>
0

>  <SCORE.INTER.REPUL>
0.0658053

>  <SCORE.INTER.ROT>
9

>  <SCORE.INTER.VDW>
-21.7227

>  <SCORE.INTER.norm>
-0.241161

>  <SCORE.INTRA>
-4.37488

>  <SCORE.INTRA.DIHEDRAL>
-4.57074

>  <SCORE.INTRA.DIHEDRAL.0>
14.7815

>  <SCORE.INTRA.POLAR>
0

>  <SCORE.INTRA.POLAR.0>
0

>  <SCORE.INTRA.REPUL>
0

>  <SCORE.INTRA.REPUL.0>
0

>  <SCORE.INTRA.VDW>
-2.08951

>  <SCORE.INTRA.VDW.0>
-0.0652974

>  <SCORE.INTRA.norm>
-0.150858

>  <SCORE.RESTR>
1.92182

>  <SCORE.RESTR.CAVITY>
1.92182

>  <SCORE.RESTR.norm>
0.0662696

>  <SCORE.SYSTEM>
-0.75952

>  <SCORE.SYSTEM.CONST>
0

>  <SCORE.SYSTEM.DIHEDRAL>
0.75576

>  <SCORE.SYSTEM.VDW>
-1.1374

>  <SCORE.SYSTEM.norm>
-0.0261903

>  <SCORE.heavy>
29

>  <SCORE.norm>
-0.351939

$$$$
OHT.pdb
  rDOCK(R)          3D
libRbt.so/2013.1/901 2013/11/27
 30 32  0  0  0  0  0  0  0  0999 V2000
   65.2836   33.6680   80.0054 C   0  0  0  0  0  0
   65.3703   34.7127   81.0840 C   0  0  0  0  0  0
   66.8007   35.1136   81.3795 C   0  0  0  0  0  0
   67.1212   36.5214   80.9921 C   0  0  0  0  0  0
   66.3187   37.5917   81.4410 C   0  0  0  0  0  0
   66.6476   38.9088   81.1189 C   0  0  0  0  0  0
   67.7602   39.1974   80.3532 C   0  0  0  0  0  0
   68.5523   38.1667   79.9063 C   0  0  0  0  0  0
   68.2342   36.8416   80.2243 C   0  0  0  0  0  0
   67.7032   34.2601   81.9465 C   0  0  0  0  0  0
   68.1727   34.3624   83.3771 C   0  0  0  0  0  0
   69.1766   35.2992   83.7756 C   0  0  0  0  0  0
   69.6321   35.3374   85.1013 C   0  0  0  0  0  0
   69.0890   34.4405   86.0407 C   0  0  0  0  0  0
   69.5622   34.4833   87.3181 O   0  0  0  0  0  0
   68.0940   33.5121   85.6587 C   0  0  0  0  0  0
   67.6573   33.4897   84.3402 C   0  0  0  0  0  0
   68.3215   33.1586   81.2024 C   0  0  0  0  0  0
   69.0706   33.3851   80.0503 C   0  0  0  0  0  0
   69.6748   32.3738   79.3578 C   0  0  0  0  0  0
   69.5486   31.0694   79.8080 C   0  0  0  0  0  0
   70.1495   30.0062   79.1973 O   0  0  0  0  0  0
   71.0037   30.2198   78.0777 C   0  0  0  0  0  0
   72.2308   30.9152   78.6021 C   0  0  0  0  0  0
   72.8777   30.2133   79.6766 N   0  0  0  0  0  0
   74.3124   30.0560   79.4336 C   0  0  0  0  0  0
   72.7060   30.9628   80.9264 C   0  0  0  0  0  0
   68.7975   30.8028   80.9659 C   0  0  0  0  0  0
   68.2031   31.8325   81.6400 C   0  0  0  0  0  0
   69.2346   33.8838   87.9594 H   0  0  0  0  0  0
  1  2  1  0  0  0
  2  3  1  0  0  0
  3  4  1  0  0  0
  3 10  1  0  0  0
  4  5  2  0  0  0
  4  9  1  0  0  0
  5  6  1  0  0  0
  6  7  2  0  0  0
  7  8  1  0  0  0
  8  9  2  0  0  0
 10 11  1  0  0  0
 10 18  1  0  0  0
 11 12  2  0  0  0
 11 17  1  0  0  0
 12 13  1  0  0  0
 13 14  2  0  0  0
 14 15  1  0  0  0
 14 16  1  0  0  0
 15 30  1  0  0  0
 16 17  2  0  0  0
 18 19  2  0  0  0
 18 29  1  0  0  0
 19 20  1  0  0  0
 20 21  2  0  0  0
 21 22  1  0  0  0
 21 28  1  0  0  0
 22 23  1  0  0  0
 23 24  1  0  0  0
 24 25  1  0  0  0
 25 26  1  0  0  0
 25 27  1  0  0  0
 28 29  2  0  0  0
M  END
>  <CHROM.0>
110.35580482,-59.90948032,-159.07403255,-0.43785166

>  <CHROM.1>
112.82007033,52.57942550,-106.28656430,-79.93967715,58.81867911,-178.47261737
3.02011013,68.92990715,54.86290043,129.68208450,68.96438952,33.74024610,81.47333377
2.69106282,-0.92372224,1.48933681

>  <FORMUL>
      OHT    C26 H29 N1 O2

>  <HET>
 OHT  A 600      29

>  <HETNAM>
     OHT 4-HYDROXYTAMOXIFEN

>  <Name>
OHT.pdb

>  <RI>
0

>  <Rbt.Current_Directory>
/home/malgorzata/Desktop/rDOCK_IFD/Wyniki/5a_estrogen_receptor/IFD

>  <Rbt.Executable>
rbdock ($Id: //depot/dev/client3/rdock/2013.1/src/exe/rbdock.cxx#4 $)

>  <Rbt.Library>
libRbt.so (2013.1, Build901 2013/11/27)

>  <Rbt.Parameter_File>
/home/malgorzata/Desktop/rDock_2013.1_src/data/scripts/hard_docking.prm

>  <Rbt.Receptor>
cavity.prm

>  <SCORE>
-7.39503

>  <SCORE.INTER>
-2.84306

>  <SCORE.INTER.CONST>
1

>  <SCORE.INTER.POLAR>
0

>  <SCORE.INTER.REPUL>
0

>  <SCORE.INTER.ROT>
9

>  <SCORE.INTER.VDW>
-17.2431

>  <SCORE.INTER.norm>
-0.0980367

>  <SCORE.INTRA>
-5.03362

>  <SCORE.INTRA.DIHEDRAL>
-5.44518

>  <SCORE.INTRA.DIHEDRAL.0>
14.7815

>  <SCORE.INTRA.POLAR>
0

>  <SCORE.INTRA.POLAR.0>
0

>  <SCORE.INTRA.REPUL>
0

>  <SCORE.INTRA.REPUL.0>
0

>  <SCORE.INTRA.VDW>
-2.31103

>  <SCORE.INTRA.VDW.0>
-0.0652974

>  <SCORE.INTRA.norm>
-0.173573

>  <SCORE.RESTR>
1.29496

>  <SCORE.RESTR.CAVITY>
1.29496

>  <SCORE.RESTR.norm>
0.0446537

>  <SCORE.SYSTEM>
-0.813303

>  <SCORE.SYSTEM.CONST>
0

>  <SCORE.SYSTEM.DIHEDRAL>
0.756314

>  <SCORE.SYSTEM.VDW>
-1.19146

>  <SCORE.SYSTEM.norm>
-0.0280449

>  <SCORE.heavy>
29

>  <SCORE.norm>
-0.255001

$$$$
OHT.pdb
  rDOCK(R)          3D
libRbt.so/2013.1/901 2013/11/27
 30 32  0  0  0  0  0  0  0  0999 V2000
   64.9778   36.4850   83.9498 C   0  0  0  0  0  0
   65.9568   36.9192   82.8937 C   0  0  0  0  0  0
   66.9130   35.8096   82.5082 C   0  0  0  0  0  0
   66.5029   35.0647   81.2788 C   0  0  0  0  0  0
   67.4327   34.8087   80.2487 C   0  0  0  0  0  0
   67.0608   34.0710   79.1244 C   0  0  0  0  0  0
   65.7782   33.5773   78.9897 C   0  0  0  0  0  0
   64.8590   33.8184   79.9829 C   0  0  0  0  0  0
   65.2203   34.5552   81.1165 C   0  0  0  0  0  0
   68.0403   35.5260   83.2247 C   0  0  0  0  0  0
   68.4398   36.2527   84.4855 C   0  0  0  0  0  0
   67.6799   36.1428   85.6916 C   0  0  0  0  0  0
   68.0438   36.8702   86.8340 C   0  0  0  0  0  0
   69.1698   37.7134   86.7819 C   0  0  0  0  0  0
   69.4916   38.4253   87.8987 O   0  0  0  0  0  0
   69.9303   37.8277   85.5959 C   0  0  0  0  0  0
   69.5522   37.0995   84.4749 C   0  0  0  0  0  0
   68.9899   34.4847   82.8206 C   0  0  0  0  0  0
   70.1582   34.7909   82.1268 C   0  0  0  0  0  0
   71.0668   33.8370   81.7637 C   0  0  0  0  0  0
   70.8321   32.5118   82.0934 C   0  0  0  0  0  0
   71.7045   31.5028   81.8014 O   0  0  0  0  0  0
   71.2136   30.2596   81.3090 C   0  0  0  0  0  0
   72.3742   29.5769   80.6372 C   0  0  0  0  0  0
   73.0139   30.3806   79.6319 N   0  0  0  0  0  0
   74.3122   29.8280   79.2429 C   0  0  0  0  0  0
   72.1656   30.4381   78.4360 C   0  0  0  0  0  0
   69.6619   32.1653   82.7909 C   0  0  0  0  0  0
   68.7691   33.1387   83.1422 C   0  0  0  0  0  0
   70.2375   38.9924   87.8941 H   0  0  0  0  0  0
  1  2  1  0  0  0
  2  3  1  0  0  0
  3  4  1  0  0  0
  3 10  1  0  0  0
  4  5  2  0  0  0
  4  9  1  0  0  0
  5  6  1  0  0  0
  6  7  2  0  0  0
  7  8  1  0  0  0
  8  9  2  0  0  0
 10 11  1  0  0  0
 10 18  1  0  0  0
 11 12  2  0  0  0
 11 17  1  0  0  0
 12 13  1  0  0  0
 13 14  2  0  0  0
 14 15  1  0  0  0
 14 16  1  0  0  0
 15 30  1  0  0  0
 16 17  2  0  0  0
 18 19  2  0  0  0
 18 29  1  0  0  0
 19 20  1  0  0  0
 20 21  2  0  0  0
 21 22  1  0  0  0
 21 28  1  0  0  0
 22 23  1  0  0  0
 23 24  1  0  0  0
 24 25  1  0  0  0
 25 26  1  0  0  0
 25 27  1  0  0  0
 28 29  2  0  0  0
M  END
>  <CHROM.0>
-101.57245485,-59.90948032,-160.26499856,-3.72308276

>  <CHROM.1>
97.00249449,132.28112323,1.58353810,67.18191998,98.28595979,179.78793096
-137.85649043,160.16090429,-54.16531800,165.99527880,69.01380793,34.22556387
82.43826492,2.09998016,-0.40895764,0.90638221

>  <FORMUL>
      OHT    C26 H29 N1 O2

>  <HET>
 OHT  A 600      29

>  <HETNAM>
     OHT 4-HYDROXYTAMOXIFEN

>  <Name>
OHT.pdb

>  <RI>
0

>  <Rbt.Current_Directory>
/home/malgorzata/Desktop/rDOCK_IFD/Wyniki/5a_estrogen_receptor/IFD

>  <Rbt.Executable>
rbdock ($Id: //depot/dev/client3/rdock/2013.1/src/exe/rbdock.cxx#4 $)

>  <Rbt.Library>
libRbt.so (2013.1, Build901 2013/11/27)

>  <Rbt.Parameter_File>
/home/malgorzata/Desktop/rDock_2013.1_src/data/scripts/hard_docking.prm

>  <Rbt.Receptor>
cavity.prm

>  <SCORE>
-1.36257

>  <SCORE.INTER>
0.348077

>  <SCORE.INTER.CONST>
1

>  <SCORE.INTER.POLAR>
0

>  <SCORE.INTER.REPUL>
0

>  <SCORE.INTER.ROT>
9

>  <SCORE.INTER.VDW>
-14.0519

>  <SCORE.INTER.norm>
0.0120027

>  <SCORE.INTRA>
-3.06

>  <SCORE.INTRA.DIHEDRAL>
-2.98074

>  <SCORE.INTRA.DIHEDRAL.0>
14.7815

>  <SCORE.INTRA.POLAR>
0

>  <SCORE.INTRA.POLAR.0>
0

>  <SCORE.INTRA.REPUL>
0

>  <SCORE.INTRA.REPUL.0>
0

>  <SCORE.INTRA.VDW>
-1.56963

>  <SCORE.INTRA.VDW.0>
-0.0652974

>  <SCORE.INTRA.norm>
-0.105517

>  <SCORE.RESTR>
1.89614

>  <SCORE.RESTR.CAVITY>
1.89614

>  <SCORE.RESTR.norm>
0.0653842

>  <SCORE.SYSTEM>
-0.546791

>  <SCORE.SYSTEM.CONST>
0

>  <SCORE.SYSTEM.DIHEDRAL>
0.77984

>  <SCORE.SYSTEM.VDW>
-0.936711

>  <SCORE.SYSTEM.norm>
-0.0188549

>  <SCORE.heavy>
29

>  <SCORE.norm>
-0.0469853

$$$$
OHT.pdb
  rDOCK(R)          3D
libRbt.so/2013.1/901 2013/11/27
 30 32  0  0  0  0  0  0  0  0999 V2000
   66.2244   34.3658   81.7058 C   0  0  0  0  0  0
   66.8480   34.6804   80.3738 C   0  0  0  0  0  0
   68.2162   35.3141   80.5172 C   0  0  0  0  0  0
   68.2449   36.7658   80.1621 C   0  0  0  0  0  0
   67.4464   37.6941   80.8634 C   0  0  0  0  0  0
   67.5112   39.0551   80.5633 C   0  0  0  0  0  0
   68.3523   39.5264   79.5745 C   0  0  0  0  0  0
   69.1363   38.6359   78.8803 C   0  0  0  0  0  0
   69.0819   37.2685   79.1734 C   0  0  0  0  0  0
   69.3127   34.6142   80.9326 C   0  0  0  0  0  0
   69.9317   33.4808   80.1519 C   0  0  0  0  0  0
   70.7005   32.4579   80.7898 C   0  0  0  0  0  0
   71.3085   31.4451   80.0341 C   0  0  0  0  0  0
   71.1539   31.4448   78.6349 C   0  0  0  0  0  0
   71.7709   30.4617   77.9205 O   0  0  0  0  0  0
   70.3937   32.4492   77.9938 C   0  0  0  0  0  0
   69.8006   33.4443   78.7604 C   0  0  0  0  0  0
   69.9907   34.8923   82.2024 C   0  0  0  0  0  0
   70.9664   35.8806   82.3085 C   0  0  0  0  0  0
   71.5912   36.1706   83.4886 C   0  0  0  0  0  0
   71.2499   35.4653   84.6315 C   0  0  0  0  0  0
   71.7982   35.7163   85.8567 O   0  0  0  0  0  0
   72.1180   37.0528   86.2315 C   0  0  0  0  0  0
   70.8243   37.8214   86.2214 C   0  0  0  0  0  0
   69.8016   37.2417   87.0484 N   0  0  0  0  0  0
   69.5264   38.0661   88.2260 C   0  0  0  0  0  0
   68.5591   37.1171   86.2779 C   0  0  0  0  0  0
   70.2714   34.4587   84.5615 C   0  0  0  0  0  0
   69.6616   34.1882   83.3686 C   0  0  0  0  0  0
   71.8304   30.5274   76.9877 H   0  0  0  0  0  0
  1  2  1  0  0  0
  2  3  1  0  0  0
  3  4  1  0  0  0
  3 10  1  0  0  0
  4  5  2  0  0  0
  4  9  1  0  0  0
  5  6  1  0  0  0
  6  7  2  0  0  0
  7  8  1  0  0  0
  8  9  2  0  0  0
 10 11  1  0  0  0
 10 18  1  0  0  0
 11 12  2  0  0  0
 11 17  1  0  0  0
 12 13  1  0  0  0
 13 14  2  0  0  0
 14 15  1  0  0  0
 14 16  1  0  0  0
 15 30  1  0  0  0
 16 17  2  0  0  0
 18 19  2  0  0  0
 18 29  1  0  0  0
 19 20  1  0  0  0
 20 21  2  0  0  0
 21 22  1  0  0  0
 21 28  1  0  0  0
 22 23  1  0  0  0
 23 24  1  0  0  0
 24 25  1  0  0  0
 25 26  1  0  0  0
 25 27  1  0  0  0
 28 29  2  0  0  0
M  END
>  <CHROM.0>
147.72224653,-59.90948032,-162.80490160,5.52436441

>  <CHROM.1>
-108.54834742,60.04197806,65.19768800,-155.17373169,-85.21078214,-167.89832418
35.71435625,61.29148998,55.19473708,110.32078097,69.72578931,35.41473602
82.06132013,1.59869680,0.97603904,-2.12416710

>  <FORMUL>
      OHT    C26 H29 N1 O2

>  <HET>
 OHT  A 600      29

>  <HETNAM>
     OHT 4-HYDROXYTAMOXIFEN

>  <Name>
OHT.pdb

>  <RI>
0

>  <Rbt.Current_Directory>
/home/malgorzata/Desktop/rDOCK_IFD/Wyniki/5a_estrogen_receptor/IFD

>  <Rbt.Executable>
rbdock ($Id: //depot/dev/client3/rdock/2013.1/src/exe/rbdock.cxx#4 $)

>  <Rbt.Library>
libRbt.so (2013.1, Build901 2013/11/27)

>  <Rbt.Parameter_File>
/home/malgorzata/Desktop/rDock_2013.1_src/data/scripts/hard_docking.prm

>  <Rbt.Receptor>
cavity.prm

>  <SCORE>
-8.5069

>  <SCORE.INTER>
-2.65441

>  <SCORE.INTER.CONST>
1

>  <SCORE.INTER.POLAR>
0

>  <SCORE.INTER.REPUL>
0

>  <SCORE.INTER.ROT>
9

>  <SCORE.INTER.VDW>
-17.0544

>  <SCORE.INTER.norm>
-0.0915313

>  <SCORE.INTRA>
-5.27832

>  <SCORE.INTRA.DIHEDRAL>
-4.41802

>  <SCORE.INTRA.DIHEDRAL.0>
14.7815

>  <SCORE.INTRA.POLAR>
0

>  <SCORE.INTRA.POLAR.0>
0

>  <SCORE.INTRA.REPUL>
0

>  <SCORE.INTRA.REPUL.0>
0

>  <SCORE.INTRA.VDW>
-3.06931

>  <SCORE.INTRA.VDW.0>
-0.0652974

>  <SCORE.INTRA.norm>
-0.182011

>  <SCORE.RESTR>
0.212068

>  <SCORE.RESTR.CAVITY>
0.212068

>  <SCORE.RESTR.norm>
0.00731268

>  <SCORE.SYSTEM>
-0.786244

>  <SCORE.SYSTEM.CONST>
0

>  <SCORE.SYSTEM.DIHEDRAL>
0.807603

>  <SCORE.SYSTEM.VDW>
-1.19004

>  <SCORE.SYSTEM.norm>
-0.0271119

>  <SCORE.heavy>
29

>  <SCORE.norm>
-0.293342

$$$$
OHT.pdb
  rDOCK(R)          3D
libRbt.so/2013.1/901 2013/11/27
 30 32  0  0  0  0  0  0  0  0999 V2000
   68.3176   30.4394   81.6648 C   0  0  0  0  0  0
   67.6570   31.7878   81.5772 C   0  0  0  0  0  0
   68.6238   32.9187   81.8610 C   0  0  0  0  0  0
   68.4572   33.5238   83.2178 C   0  0  0  0  0  0
   69.0525   32.9274   84.3496 C   0  0  0  0  0  0
   68.9370   33.5203   85.6073 C   0  0  0  0  0  0
   68.2376   34.6990   85.7767 C   0  0  0  0  0  0
   67.6501   35.2929   84.6851 C   0  0  0  0  0  0
   67.7605   34.7092   83.4180 C   0  0  0  0  0  0
   69.5552   33.3372   80.9544 C   0  0  0  0  0  0
   70.5888   32.4307   80.3322 C   0  0  0  0  0  0
   71.7882   32.0701   81.0220 C   0  0  0  0  0  0
   72.7564   31.2686   80.4002 C   0  0  0  0  0  0
   72.5354   30.8200   79.0843 C   0  0  0  0  0  0
   73.4999   30.0590   78.4943 O   0  0  0  0  0  0
   71.3521   31.1677   78.3937 C   0  0  0  0  0  0
   70.4060   31.9636   79.0271 C   0  0  0  0  0  0
   69.6496   34.7301   80.5071 C   0  0  0  0  0  0
   68.7926   35.2458   79.5378 C   0  0  0  0  0  0
   68.8494   36.5476   79.1264 C   0  0  0  0  0  0
   69.7876   37.3991   79.6873 C   0  0  0  0  0  0
   69.8876   38.7211   79.3603 O   0  0  0  0  0  0
   68.9823   39.6635   79.9271 C   0  0  0  0  0  0
   69.2286   39.6542   81.4116 C   0  0  0  0  0  0
   70.5666   40.0305   81.7774 N   0  0  0  0  0  0
   70.6703   41.4653   82.0473 C   0  0  0  0  0  0
   70.9656   39.3079   82.9906 C   0  0  0  0  0  0
   70.6711   36.9126   80.6664 C   0  0  0  0  0  0
   70.5934   35.6061   81.0601 C   0  0  0  0  0  0
   74.2826   29.8476   78.9641 H   0  0  0  0  0  0
  1  2  1  0  0  0
  2  3  1  0  0  0
  3  4  1  0  0  0
  3 10  1  0  0  0
  4  5  2  0  0  0
  4  9  1  0  0  0
  5  6  1  0  0  0
  6  7  2  0  0  0
  7  8  1  0  0  0
  8  9  2  0  0  0
 10 11  1  0  0  0
 10 18  1  0  0  0
 11 12  2  0  0  0
 11 17  1  0  0  0
 12 13  1  0  0  0
 13 14  2  0  0  0
 14 15  1  0  0  0
 14 16  1  0  0  0
 15 30  1  0  0  0
 16 17  2  0  0  0
 18 19  2  0  0  0
 18 29  1  0  0  0
 19 20  1  0  0  0
 20 21  2  0  0  0
 21 22  1  0  0  0
 21 28  1  0  0  0
 22 23  1  0  0  0
 23 24  1  0  0  0
 24 25  1  0  0  0
 25 26  1  0  0  0
 25 27  1  0  0  0
 28 29  2  0  0  0
M  END
>  <CHROM.0>
137.25623684,-59.90948032,-174.23067591,3.76950611

>  <CHROM.1>
-104.14702381,82.66669464,-56.17411845,-80.29722812,-79.87408228,0.07294414
79.20855908,63.40302064,60.55848541,92.62687498,69.88516991,34.82718737,81.28916713
1.31636031,-1.02049869,3.06862081

>  <FORMUL>
      OHT    C26 H29 N1 O2

>  <HET>
 OHT  A 600      29

>  <HETNAM>
     OHT 4-HYDROXYTAMOXIFEN

>  <Name>
OHT.pdb

>  <RI>
0

>  <Rbt.Current_Directory>
/home/malgorzata/Desktop/rDOCK_IFD/Wyniki/5a_estrogen_receptor/IFD

>  <Rbt.Executable>
rbdock ($Id: //depot/dev/client3/rdock/2013.1/src/exe/rbdock.cxx#4 $)

>  <Rbt.Library>
libRbt.so (2013.1, Build901 2013/11/27)

>  <Rbt.Parameter_File>
/home/malgorzata/Desktop/rDock_2013.1_src/data/scripts/hard_docking.prm

>  <Rbt.Receptor>
cavity.prm

>  <SCORE>
-8.91799

>  <SCORE.INTER>
-2.54951

>  <SCORE.INTER.CONST>
1

>  <SCORE.INTER.POLAR>
0

>  <SCORE.INTER.REPUL>
0.035673

>  <SCORE.INTER.ROT>
9

>  <SCORE.INTER.VDW>
-17.1279

>  <SCORE.INTER.norm>
-0.087914

>  <SCORE.INTRA>
-5.6193

>  <SCORE.INTRA.DIHEDRAL>
-2.35583

>  <SCORE.INTRA.DIHEDRAL.0>
14.7815

>  <SCORE.INTRA.POLAR>
0

>  <SCORE.INTRA.POLAR.0>
0

>  <SCORE.INTRA.REPUL>
0

>  <SCORE.INTRA.REPUL.0>
0

>  <SCORE.INTRA.VDW>
-4.44139

>  <SCORE.INTRA.VDW.0>
-0.0652974

>  <SCORE.INTRA.norm>
-0.193769

>  <SCORE.RESTR>
0.0504546

>  <SCORE.RESTR.CAVITY>
0.0504546

>  <SCORE.RESTR.norm>
0.00173981

>  <SCORE.SYSTEM>
-0.799632

>  <SCORE.SYSTEM.CONST>
0

>  <SCORE.SYSTEM.DIHEDRAL>
0.803842

>  <SCORE.SYSTEM.VDW>
-1.20155

>  <SCORE.SYSTEM.norm>
-0.0275735

>  <SCORE.heavy>
29

>  <SCORE.norm>
-0.307517

$$$$
OHT.pdb
  rDOCK(R)          3D
libRbt.so/2013.1/901 2013/11/27
 30 32  0  0  0  0  0  0  0  0999 V2000
   64.9998   36.0457   81.8921 C   0  0  0  0  0  0
   65.9023   34.8467   81.7916 C   0  0  0  0  0  0
   67.3632   35.2357   81.6989 C   0  0  0  0  0  0
   68.0460   34.7148   80.4754 C   0  0  0  0  0  0
   68.5161   35.5996   79.4819 C   0  0  0  0  0  0
   69.1966   35.1148   78.3644 C   0  0  0  0  0  0
   69.4237   33.7624   78.2011 C   0  0  0  0  0  0
   68.9714   32.8861   79.1587 C   0  0  0  0  0  0
   68.2895   33.3600   80.2850 C   0  0  0  0  0  0
   67.9865   35.9915   82.6502 C   0  0  0  0  0  0
   68.0435   35.6225   84.1124 C   0  0  0  0  0  0
   67.7386   36.5680   85.1407 C   0  0  0  0  0  0
   67.8503   36.2136   86.4929 C   0  0  0  0  0  0
   68.2672   34.9120   86.8300 C   0  0  0  0  0  0
   68.3874   34.5977   88.1507 O   0  0  0  0  0  0
   68.5683   33.9680   85.8219 C   0  0  0  0  0  0
   68.4525   34.3395   84.4884 C   0  0  0  0  0  0
   68.6540   37.2587   82.3375 C   0  0  0  0  0  0
   67.9698   38.4716   82.3671 C   0  0  0  0  0  0
   68.5808   39.6649   82.1029 C   0  0  0  0  0  0
   69.9317   39.6852   81.7950 C   0  0  0  0  0  0
   70.6265   40.8358   81.5544 O   0  0  0  0  0  0
   70.4698   41.9549   82.4216 C   0  0  0  0  0  0
   71.4901   42.9745   81.9933 C   0  0  0  0  0  0
   72.8472   42.5132   82.0988 N   0  0  0  0  0  0
   73.7186   43.1679   81.1219 C   0  0  0  0  0  0
   73.3632   42.8081   83.4405 C   0  0  0  0  0  0
   70.6537   38.4799   81.7530 C   0  0  0  0  0  0
   70.0186   37.2998   82.0212 C   0  0  0  0  0  0
   68.2232   35.2489   88.8042 H   0  0  0  0  0  0
  1  2  1  0  0  0
  2  3  1  0  0  0
  3  4  1  0  0  0
  3 10  1  0  0  0
  4  5  2  0  0  0
  4  9  1  0  0  0
  5  6  1  0  0  0
  6  7  2  0  0  0
  7  8  1  0  0  0
  8  9  2  0  0  0
 10 11  1  0  0  0
 10 18  1  0  0  0
 11 12  2  0  0  0
 11 17  1  0  0  0
 12 13  1  0  0  0
 13 14  2  0  0  0
 14 15  1  0  0  0
 14 16  1  0  0  0
 15 30  1  0  0  0
 16 17  2  0  0  0
 18 19  2  0  0  0
 18 29  1  0  0  0
 19 20  1  0  0  0
 20 21  2  0  0  0
 21 22  1  0  0  0
 21 28  1  0  0  0
 22 23  1  0  0  0
 23 24  1  0  0  0
 24 25  1  0  0  0
 25 26  1  0  0  0
 25 27  1  0  0  0
 28 29  2  0  0  0
M  END
>  <CHROM.0>
-122.23715263,-59.90948032,-160.59632676,4.53377669

>  <CHROM.1>
-122.44513007,114.02966384,56.46729276,-132.42458037,89.24383519,-2.11143990
45.97088515,172.75524170,-60.99224637,151.56911246,69.16054886,37.30438883
82.45255978,-3.04876984,1.06389802,1.36668749

>  <FORMUL>
      OHT    C26 H29 N1 O2

>  <HET>
 OHT  A 600      29

>  <HETNAM>
     OHT 4-HYDROXYTAMOXIFEN

>  <Name>
OHT.pdb

>  <RI>
0

>  <Rbt.Current_Directory>
/home/malgorzata/Desktop/rDOCK_IFD/Wyniki/5a_estrogen_receptor/IFD

>  <Rbt.Executable>
rbdock ($Id: //depot/dev/client3/rdock/2013.1/src/exe/rbdock.cxx#4 $)

>  <Rbt.Library>
libRbt.so (2013.1, Build901 2013/11/27)

>  <Rbt.Parameter_File>
/home/malgorzata/Desktop/rDock_2013.1_src/data/scripts/hard_docking.prm

>  <Rbt.Receptor>
cavity.prm

>  <SCORE>
-7.13908

>  <SCORE.INTER>
-3.2018

>  <SCORE.INTER.CONST>
1

>  <SCORE.INTER.POLAR>
0

>  <SCORE.INTER.REPUL>
0

>  <SCORE.INTER.ROT>
9

>  <SCORE.INTER.VDW>
-17.6018

>  <SCORE.INTER.norm>
-0.110407

>  <SCORE.INTRA>
-5.83425

>  <SCORE.INTRA.DIHEDRAL>
-4.91624

>  <SCORE.INTRA.DIHEDRAL.0>
14.7815

>  <SCORE.INTRA.POLAR>
0

>  <SCORE.INTRA.POLAR.0>
0

>  <SCORE.INTRA.REPUL>
0

>  <SCORE.INTRA.REPUL.0>
0

>  <SCORE.INTRA.VDW>
-3.37613

>  <SCORE.INTRA.VDW.0>
-0.0652974

>  <SCORE.INTRA.norm>
-0.201181

>  <SCORE.RESTR>
2.49427

>  <SCORE.RESTR.CAVITY>
2.49427

>  <SCORE.RESTR.norm>
0.0860093

>  <SCORE.SYSTEM>
-0.597294

>  <SCORE.SYSTEM.CONST>
0

>  <SCORE.SYSTEM.DIHEDRAL>
0.788349

>  <SCORE.SYSTEM.VDW>
-0.991469

>  <SCORE.SYSTEM.norm>
-0.0205964

>  <SCORE.heavy>
29

>  <SCORE.norm>
-0.246175

$$$$
OHT.pdb
  rDOCK(R)          3D
libRbt.so/2013.1/901 2013/11/27
 30 32  0  0  0  0  0  0  0  0999 V2000
   66.2455   33.5336   80.1046 C   0  0  0  0  0  0
   67.2618   34.1240   79.1661 C   0  0  0  0  0  0
   68.4351   34.7354   79.9033 C   0  0  0  0  0  0
   68.4620   36.2292   79.8539 C   0  0  0  0  0  0
   67.6736   36.9927   80.7407 C   0  0  0  0  0  0
   67.7370   38.3865   80.7260 C   0  0  0  0  0  0
   68.5668   39.0516   79.8450 C   0  0  0  0  0  0
   69.3408   38.3235   78.9731 C   0  0  0  0  0  0
   69.2877   36.9251   78.9795 C   0  0  0  0  0  0
   69.3737   33.9821   80.5485 C   0  0  0  0  0  0
   69.7554   32.5813   80.1366 C   0  0  0  0  0  0
   69.4401   31.4456   80.9458 C   0  0  0  0  0  0
   69.8526   30.1605   80.5650 C   0  0  0  0  0  0
   70.5832   29.9984   79.3727 C   0  0  0  0  0  0
   70.9902   28.7425   79.0342 O   0  0  0  0  0  0
   70.8980   31.1136   78.5633 C   0  0  0  0  0  0
   70.4812   32.3783   78.9590 C   0  0  0  0  0  0
   70.0968   34.4651   81.7288 C   0  0  0  0  0  0
   69.4313   35.0408   82.8084 C   0  0  0  0  0  0
   70.0858   35.4739   83.9270 C   0  0  0  0  0  0
   71.4626   35.3397   84.0057 C   0  0  0  0  0  0
   72.1888   35.7122   85.1004 O   0  0  0  0  0  0
   71.9424   36.9699   85.7220 C   0  0  0  0  0  0
   72.3192   38.0249   84.7175 C   0  0  0  0  0  0
   71.9973   39.3618   85.1356 N   0  0  0  0  0  0
   73.0387   39.9250   85.9961 C   0  0  0  0  0  0
   71.8624   40.2258   83.9573 C   0  0  0  0  0  0
   72.1680   34.7659   82.9337 C   0  0  0  0  0  0
   71.4894   34.3408   81.8262 C   0  0  0  0  0  0
   71.4177   28.5937   78.2138 H   0  0  0  0  0  0
  1  2  1  0  0  0
  2  3  1  0  0  0
  3  4  1  0  0  0
  3 10  1  0  0  0
  4  5  2  0  0  0
  4  9  1  0  0  0
  5  6  1  0  0  0
  6  7  2  0  0  0
  7  8  1  0  0  0
  8  9  2  0  0  0
 10 11  1  0  0  0
 10 18  1  0  0  0
 11 12  2  0  0  0
 11 17  1  0  0  0
 12 13  1  0  0  0
 13 14  2  0  0  0
 14 15  1  0  0  0
 14 16  1  0  0  0
 15 30  1  0  0  0
 16 17  2  0  0  0
 18 19  2  0  0  0
 18 29  1  0  0  0
 19 20  1  0  0  0
 20 21  2  0  0  0
 21 22  1  0  0  0
 21 28  1  0  0  0
 22 23  1  0  0  0
 23 24  1  0  0  0
 24 25  1  0  0  0
 25 26  1  0  0  0
 25 27  1  0  0  0
 28 29  2  0  0  0
M  END
>  <CHROM.0>
136.80866144,-59.90948032,-162.19373421,1.67487457

>  <CHROM.1>
-108.80330303,81.74830123,28.88148271,-111.66236591,48.86509659,175.09528068
-45.78779857,-64.89044303,173.78020710,83.72058931,70.12446889,35.13612119
81.58352891,1.91820915,0.84447655,-2.80365739

>  <FORMUL>
      OHT    C26 H29 N1 O2

>  <HET>
 OHT  A 600      29

>  <HETNAM>
     OHT 4-HYDROXYTAMOXIFEN

>  <Name>
OHT.pdb

>  <RI>
0

>  <Rbt.Current_Directory>
/home/malgorzata/Desktop/rDOCK_IFD/Wyniki/5a_estrogen_receptor/IFD

>  <Rbt.Executable>
rbdock ($Id: //depot/dev/client3/rdock/2013.1/src/exe/rbdock.cxx#4 $)

>  <Rbt.Library>
libRbt.so (2013.1, Build901 2013/11/27)

>  <Rbt.Parameter_File>
/home/malgorzata/Desktop/rDock_2013.1_src/data/scripts/hard_docking.prm

>  <Rbt.Receptor>
cavity.prm

>  <SCORE>
-6.54347

>  <SCORE.INTER>
-0.380037

>  <SCORE.INTER.CONST>
1

>  <SCORE.INTER.POLAR>
0

>  <SCORE.INTER.REPUL>
0

>  <SCORE.INTER.ROT>
9

>  <SCORE.INTER.VDW>
-14.78

>  <SCORE.INTER.norm>
-0.0131047

>  <SCORE.INTRA>
-5.3488

>  <SCORE.INTRA.DIHEDRAL>
-4.78572

>  <SCORE.INTRA.DIHEDRAL.0>
14.7815

>  <SCORE.INTRA.POLAR>
0

>  <SCORE.INTRA.POLAR.0>
0

>  <SCORE.INTRA.REPUL>
0

>  <SCORE.INTRA.REPUL.0>
0

>  <SCORE.INTRA.VDW>
-2.95594

>  <SCORE.INTRA.VDW.0>
-0.0652974

>  <SCORE.INTRA.norm>
-0.184441

>  <SCORE.RESTR>
0

>  <SCORE.RESTR.CAVITY>
0

>  <SCORE.RESTR.norm>
0

>  <SCORE.SYSTEM>
-0.814626

>  <SCORE.SYSTEM.CONST>
0

>  <SCORE.SYSTEM.DIHEDRAL>
0.765897

>  <SCORE.SYSTEM.VDW>
-1.19757

>  <SCORE.SYSTEM.norm>
-0.0280905

>  <SCORE.heavy>
29

>  <SCORE.norm>
-0.225637

$$$$
