OHT.pdb
  rDOCK(R)          3D
libRbt.so/2013.1/901 2013/11/27
 30 32  0  0  0  0  0  0  0  0999 V2000
   72.8881   41.6988   83.2937 C   0  0  0  0  0  0
   72.4352   40.4682   82.5571 C   0  0  0  0  0  0
   72.5812   39.2138   83.3934 C   0  0  0  0  0  0
   73.7959   38.4089   83.0602 C   0  0  0  0  0  0
   73.7949   37.0065   83.2163 C   0  0  0  0  0  0
   74.9126   36.2520   82.8584 C   0  0  0  0  0  0
   76.0448   36.8558   82.3476 C   0  0  0  0  0  0
   76.0635   38.2212   82.1901 C   0  0  0  0  0  0
   74.9480   38.9888   82.5434 C   0  0  0  0  0  0
   71.6809   38.8622   84.3580 C   0  0  0  0  0  0
   71.8284   39.2213   85.8164 C   0  0  0  0  0  0
   71.9426   38.2205   86.8311 C   0  0  0  0  0  0
   72.0258   38.5810   88.1837 C   0  0  0  0  0  0
   71.9959   39.9439   88.5348 C   0  0  0  0  0  0
   72.0580   40.2683   89.8571 O   0  0  0  0  0  0
   71.8863   40.9420   87.5400 C   0  0  0  0  0  0
   71.8039   40.5639   86.2058 C   0  0  0  0  0  0
   70.4778   38.0774   84.0649 C   0  0  0  0  0  0
   70.2475   36.8417   84.6649 C   0  0  0  0  0  0
   69.1206   36.1077   84.4229 C   0  0  0  0  0  0
   68.1611   36.5993   83.5524 C   0  0  0  0  0  0
   66.9914   35.9480   83.2837 O   0  0  0  0  0  0
   65.7527   36.6452   83.3762 C   0  0  0  0  0  0
   64.6791   35.5971   83.4905 C   0  0  0  0  0  0
   64.8149   34.7550   84.6473 N   0  0  0  0  0  0
   63.5243   34.5104   85.2929 C   0  0  0  0  0  0
   65.3783   33.4601   84.2485 C   0  0  0  0  0  0
   68.3612   37.8417   82.9262 C   0  0  0  0  0  0
   69.4972   38.5560   83.1855 C   0  0  0  0  0  0
   72.1699   39.5957   90.4998 H   0  0  0  0  0  0
  1  2  1  0  0  0
  2  3  1  0  0  0
  3  4  1  0  0  0
  3 10  1  0  0  0
  4  5  2  0  0  0
  4  9  1  0  0  0
  5  6  1  0  0  0
  6  7  2  0  0  0
  7  8  1  0  0  0
  8  9  2  0  0  0
 10 11  1  0  0  0
 10 18  1  0  0  0
 11 12  2  0  0  0
 11 17  1  0  0  0
 12 13  1  0  0  0
 13 14  2  0  0  0
 14 15  1  0  0  0
 14 16  1  0  0  0
 15 30  1  0  0  0
 16 17  2  0  0  0
 18 19  2  0  0  0
 18 29  1  0  0  0
 19 20  1  0  0  0
 20 21  2  0  0  0
 21 22  1  0  0  0
 21 28  1  0  0  0
 22 23  1  0  0  0
 23 24  1  0  0  0
 24 25  1  0  0  0
 25 26  1  0  0  0
 25 27  1  0  0  0
 28 29  2  0  0  0
M  END
>  <CHROM.0>
-114.79601517,-58.75751345,-66.67163900,18.90901332

>  <CHROM.1>
-100.42108727,-149.58167153,-93.71952731,-118.37010386,120.08109593,3.63782348
129.56357658,-161.18894176,60.59366723,137.81834791,70.56618882,37.85423880
84.50843885,-0.22619503,-0.37514483,-2.05841984

>  <FORMUL>
      OHT    C26 H29 N1 O2

>  <HET>
 OHT  A 600      29

>  <HETNAM>
     OHT 4-HYDROXYTAMOXIFEN

>  <Name>
OHT.pdb

>  <RI>
0

>  <Rbt.Current_Directory>
/home/malgorzata/Desktop/rDOCK_IFD/test5/IFD

>  <Rbt.Executable>
rbdock ($Id: //depot/dev/client3/rdock/2013.1/src/exe/rbdock.cxx#4 $)

>  <Rbt.Library>
libRbt.so (2013.1, Build901 2013/11/27)

>  <Rbt.Parameter_File>
/home/malgorzata/Desktop/rDock_2013.1_src/data/scripts/hard_docking.prm

>  <Rbt.Receptor>
cavity.prm

>  <SCORE>
10.3429

>  <SCORE.INTER>
3.03573

>  <SCORE.INTER.CONST>
1

>  <SCORE.INTER.POLAR>
0

>  <SCORE.INTER.REPUL>
0

>  <SCORE.INTER.ROT>
9

>  <SCORE.INTER.VDW>
-11.3643

>  <SCORE.INTER.norm>
0.10468

>  <SCORE.INTRA>
-2.5934

>  <SCORE.INTRA.DIHEDRAL>
-1.52067

>  <SCORE.INTRA.DIHEDRAL.0>
14.7815

>  <SCORE.INTRA.POLAR>
0

>  <SCORE.INTRA.POLAR.0>
0

>  <SCORE.INTRA.REPUL>
0

>  <SCORE.INTRA.REPUL.0>
0

>  <SCORE.INTRA.VDW>
-1.83307

>  <SCORE.INTRA.VDW.0>
-0.0652974

>  <SCORE.INTRA.norm>
-0.0894277

>  <SCORE.RESTR>
12.1846

>  <SCORE.RESTR.CAVITY>
12.1846

>  <SCORE.RESTR.norm>
0.42016

>  <SCORE.SYSTEM>
-2.28405

>  <SCORE.SYSTEM.CONST>
0

>  <SCORE.SYSTEM.DIHEDRAL>
1.30974

>  <SCORE.SYSTEM.REPUL>
1.86223

>  <SCORE.SYSTEM.VDW>
-12.2501

>  <SCORE.SYSTEM.norm>
-0.0787604

>  <SCORE.heavy>
29

>  <SCORE.norm>
0.356652

$$$$
OHT.pdb
  rDOCK(R)          3D
libRbt.so/2013.1/901 2013/11/27
 30 32  0  0  0  0  0  0  0  0999 V2000
   67.6855   37.8348   81.8727 C   0  0  0  0  0  0
   69.0760   37.4269   81.4699 C   0  0  0  0  0  0
   69.8856   36.9159   82.6435 C   0  0  0  0  0  0
   70.9626   37.8546   83.0832 C   0  0  0  0  0  0
   70.7777   39.2511   83.0012 C   0  0  0  0  0  0
   71.7645   40.1255   83.4576 C   0  0  0  0  0  0
   72.9436   39.6491   83.9960 C   0  0  0  0  0  0
   73.1411   38.2915   84.0822 C   0  0  0  0  0  0
   72.1581   37.4041   83.6298 C   0  0  0  0  0  0
   69.6446   35.7092   83.2355 C   0  0  0  0  0  0
   69.3020   35.5430   84.6958 C   0  0  0  0  0  0
   67.9569   35.3404   85.1360 C   0  0  0  0  0  0
   67.6598   35.2413   86.5029 C   0  0  0  0  0  0
   68.7034   35.3435   87.4421 C   0  0  0  0  0  0
   68.3870   35.2642   88.7654 O   0  0  0  0  0  0
   70.0374   35.5408   87.0184 C   0  0  0  0  0  0
   70.3103   35.6375   85.6597 C   0  0  0  0  0  0
   69.7134   34.4428   82.5002 C   0  0  0  0  0  0
   70.0356   33.2458   83.1354 C   0  0  0  0  0  0
   70.0802   32.0523   82.4715 C   0  0  0  0  0  0
   69.7943   32.0153   81.1162 C   0  0  0  0  0  0
   69.7803   30.8615   80.3861 O   0  0  0  0  0  0
   70.7854   29.8746   80.5981 C   0  0  0  0  0  0
   72.0830   30.4785   80.1333 C   0  0  0  0  0  0
   73.2321   29.6600   80.4078 N   0  0  0  0  0  0
   74.2611   29.8094   79.3778 C   0  0  0  0  0  0
   73.8161   30.0498   81.6963 C   0  0  0  0  0  0
   69.4679   33.2045   80.4415 C   0  0  0  0  0  0
   69.4303   34.3852   81.1289 C   0  0  0  0  0  0
   69.0334   35.4617   89.4144 H   0  0  0  0  0  0
  1  2  1  0  0  0
  2  3  1  0  0  0
  3  4  1  0  0  0
  3 10  1  0  0  0
  4  5  2  0  0  0
  4  9  1  0  0  0
  5  6  1  0  0  0
  6  7  2  0  0  0
  7  8  1  0  0  0
  8  9  2  0  0  0
 10 11  1  0  0  0
 10 18  1  0  0  0
 11 12  2  0  0  0
 11 17  1  0  0  0
 12 13  1  0  0  0
 13 14  2  0  0  0
 14 15  1  0  0  0
 14 16  1  0  0  0
 15 30  1  0  0  0
 16 17  2  0  0  0
 18 19  2  0  0  0
 18 29  1  0  0  0
 19 20  1  0  0  0
 20 21  2  0  0  0
 21 22  1  0  0  0
 21 28  1  0  0  0
 22 23  1  0  0  0
 23 24  1  0  0  0
 24 25  1  0  0  0
 25 26  1  0  0  0
 25 27  1  0  0  0
 28 29  2  0  0  0
M  END
>  <CHROM.0>
-101.71087676,-58.95052732,73.75900969,176.80009099

>  <CHROM.1>
-108.23495967,33.95430382,-121.47387819,100.71310930,152.07849279,-170.40944145
-41.19713594,-67.00142391,173.83138543,147.30396775,70.46079891,34.68218116
83.04497605,-1.98306599,-0.96535988,-2.92614420

>  <FORMUL>
      OHT    C26 H29 N1 O2

>  <HET>
 OHT  A 600      29

>  <HETNAM>
     OHT 4-HYDROXYTAMOXIFEN

>  <Name>
OHT.pdb

>  <RI>
0

>  <Rbt.Current_Directory>
/home/malgorzata/Desktop/rDOCK_IFD/test5/IFD

>  <Rbt.Executable>
rbdock ($Id: //depot/dev/client3/rdock/2013.1/src/exe/rbdock.cxx#4 $)

>  <Rbt.Library>
libRbt.so (2013.1, Build901 2013/11/27)

>  <Rbt.Parameter_File>
/home/malgorzata/Desktop/rDock_2013.1_src/data/scripts/hard_docking.prm

>  <Rbt.Receptor>
cavity.prm

>  <SCORE>
2.1508

>  <SCORE.INTER>
2.60095

>  <SCORE.INTER.CONST>
1

>  <SCORE.INTER.POLAR>
0

>  <SCORE.INTER.REPUL>
0

>  <SCORE.INTER.ROT>
9

>  <SCORE.INTER.VDW>
-11.799

>  <SCORE.INTER.norm>
0.089688

>  <SCORE.INTRA>
-3.15993

>  <SCORE.INTRA.DIHEDRAL>
-4.12785

>  <SCORE.INTRA.DIHEDRAL.0>
14.7815

>  <SCORE.INTRA.POLAR>
0

>  <SCORE.INTRA.POLAR.0>
0

>  <SCORE.INTRA.REPUL>
0

>  <SCORE.INTRA.REPUL.0>
0

>  <SCORE.INTRA.VDW>
-1.09601

>  <SCORE.INTRA.VDW.0>
-0.0652974

>  <SCORE.INTRA.norm>
-0.108963

>  <SCORE.RESTR>
4.86469

>  <SCORE.RESTR.CAVITY>
4.86469

>  <SCORE.RESTR.norm>
0.167748

>  <SCORE.SYSTEM>
-2.1549

>  <SCORE.SYSTEM.CONST>
0

>  <SCORE.SYSTEM.DIHEDRAL>
0.827735

>  <SCORE.SYSTEM.REPUL>
1.8925

>  <SCORE.SYSTEM.VDW>
-12.0313

>  <SCORE.SYSTEM.norm>
-0.074307

>  <SCORE.heavy>
29

>  <SCORE.norm>
0.0741656

$$$$
OHT.pdb
  rDOCK(R)          3D
libRbt.so/2013.1/901 2013/11/27
 30 32  0  0  0  0  0  0  0  0999 V2000
   67.9834   39.3053   80.2846 C   0  0  0  0  0  0
   67.4610   39.3826   81.6929 C   0  0  0  0  0  0
   67.9683   38.2453   82.5551 C   0  0  0  0  0  0
   66.8894   37.5377   83.3100 C   0  0  0  0  0  0
   66.7728   37.6869   84.7082 C   0  0  0  0  0  0
   65.7357   37.0649   85.4042 C   0  0  0  0  0  0
   64.8028   36.2881   84.7459 C   0  0  0  0  0  0
   64.9020   36.1308   83.3840 C   0  0  0  0  0  0
   65.9364   36.7512   82.6743 C   0  0  0  0  0  0
   69.2895   37.9082   82.6278 C   0  0  0  0  0  0
   70.3764   38.8582   83.0677 C   0  0  0  0  0  0
   71.1841   38.5982   84.2185 C   0  0  0  0  0  0
   72.1520   39.5233   84.6356 C   0  0  0  0  0  0
   72.3219   40.7158   83.9071 C   0  0  0  0  0  0
   73.2549   41.6082   84.3437 O   0  0  0  0  0  0
   71.5311   40.9820   82.7661 C   0  0  0  0  0  0
   70.5770   40.0532   82.3703 C   0  0  0  0  0  0
   69.7844   36.5770   82.2640 C   0  0  0  0  0  0
   70.0346   35.6023   83.2269 C   0  0  0  0  0  0
   70.4723   34.3485   82.9048 C   0  0  0  0  0  0
   70.6769   34.0191   81.5745 C   0  0  0  0  0  0
   71.0772   32.7798   81.1641 O   0  0  0  0  0  0
   71.9585   32.0122   81.9784 C   0  0  0  0  0  0
   72.2374   30.7395   81.2256 C   0  0  0  0  0  0
   71.0662   29.9415   80.9863 N   0  0  0  0  0  0
   70.4369   30.2743   79.7074 C   0  0  0  0  0  0
   71.4368   28.5220   80.9568 C   0  0  0  0  0  0
   70.4374   34.9786   80.5755 C   0  0  0  0  0  0
   70.0000   36.2255   80.9246 C   0  0  0  0  0  0
   73.8317   41.3774   85.0453 H   0  0  0  0  0  0
  1  2  1  0  0  0
  2  3  1  0  0  0
  3  4  1  0  0  0
  3 10  1  0  0  0
  4  5  2  0  0  0
  4  9  1  0  0  0
  5  6  1  0  0  0
  6  7  2  0  0  0
  7  8  1  0  0  0
  8  9  2  0  0  0
 10 11  1  0  0  0
 10 18  1  0  0  0
 11 12  2  0  0  0
 11 17  1  0  0  0
 12 13  1  0  0  0
 13 14  2  0  0  0
 14 15  1  0  0  0
 14 16  1  0  0  0
 15 30  1  0  0  0
 16 17  2  0  0  0
 18 19  2  0  0  0
 18 29  1  0  0  0
 19 20  1  0  0  0
 20 21  2  0  0  0
 21 22  1  0  0  0
 21 28  1  0  0  0
 22 23  1  0  0  0
 23 24  1  0  0  0
 24 25  1  0  0  0
 25 26  1  0  0  0
 25 27  1  0  0  0
 28 29  2  0  0  0
M  END
>  <CHROM.0>
111.16230539,-59.09915919,-77.70582107,8.46272977

>  <CHROM.1>
-130.21351446,-108.68743229,58.42728540,118.86992727,-98.12322442,7.32579387
-33.83595415,-177.99707709,-61.82756577,91.11658956,69.67343704,36.21989163
82.51810490,1.73570019,0.13295951,0.24856706

>  <FORMUL>
      OHT    C26 H29 N1 O2

>  <HET>
 OHT  A 600      29

>  <HETNAM>
     OHT 4-HYDROXYTAMOXIFEN

>  <Name>
OHT.pdb

>  <RI>
0

>  <Rbt.Current_Directory>
/home/malgorzata/Desktop/rDOCK_IFD/test5/IFD

>  <Rbt.Executable>
rbdock ($Id: //depot/dev/client3/rdock/2013.1/src/exe/rbdock.cxx#4 $)

>  <Rbt.Library>
libRbt.so (2013.1, Build901 2013/11/27)

>  <Rbt.Parameter_File>
/home/malgorzata/Desktop/rDock_2013.1_src/data/scripts/hard_docking.prm

>  <Rbt.Receptor>
cavity.prm

>  <SCORE>
-11.3207

>  <SCORE.INTER>
-4.86713

>  <SCORE.INTER.CONST>
1

>  <SCORE.INTER.POLAR>
0

>  <SCORE.INTER.REPUL>
0

>  <SCORE.INTER.ROT>
9

>  <SCORE.INTER.VDW>
-19.2671

>  <SCORE.INTER.norm>
-0.167832

>  <SCORE.INTRA>
-5.3975

>  <SCORE.INTRA.DIHEDRAL>
-5.90487

>  <SCORE.INTRA.DIHEDRAL.0>
14.7815

>  <SCORE.INTRA.POLAR>
0

>  <SCORE.INTRA.POLAR.0>
0

>  <SCORE.INTRA.REPUL>
0

>  <SCORE.INTRA.REPUL.0>
0

>  <SCORE.INTRA.VDW>
-2.44506

>  <SCORE.INTRA.VDW.0>
-0.0652974

>  <SCORE.INTRA.norm>
-0.186121

>  <SCORE.RESTR>
1.48164

>  <SCORE.RESTR.CAVITY>
1.48164

>  <SCORE.RESTR.norm>
0.0510912

>  <SCORE.SYSTEM>
-2.53767

>  <SCORE.SYSTEM.CONST>
0

>  <SCORE.SYSTEM.DIHEDRAL>
0.902735

>  <SCORE.SYSTEM.REPUL>
1.91515

>  <SCORE.SYSTEM.VDW>
-12.5648

>  <SCORE.SYSTEM.norm>
-0.0875059

>  <SCORE.heavy>
29

>  <SCORE.norm>
-0.390367

$$$$
OHT.pdb
  rDOCK(R)          3D
libRbt.so/2013.1/901 2013/11/27
 30 32  0  0  0  0  0  0  0  0999 V2000
   70.4235   31.4245   84.1243 C   0  0  0  0  0  0
   70.5744   31.8627   82.6934 C   0  0  0  0  0  0
   70.9332   33.3297   82.5785 C   0  0  0  0  0  0
   72.2675   33.5733   81.9501 C   0  0  0  0  0  0
   72.6249   34.8606   81.4961 C   0  0  0  0  0  0
   73.8890   35.0966   80.9547 C   0  0  0  0  0  0
   74.8176   34.0801   80.8467 C   0  0  0  0  0  0
   74.4858   32.8195   81.2827 C   0  0  0  0  0  0
   73.2219   32.5706   81.8295 C   0  0  0  0  0  0
   70.1070   34.3267   83.0121 C   0  0  0  0  0  0
   68.6391   34.4092   82.6720 C   0  0  0  0  0  0
   68.1851   34.8889   81.4039 C   0  0  0  0  0  0
   66.8141   35.0047   81.1331 C   0  0  0  0  0  0
   65.8844   34.6423   82.1261 C   0  0  0  0  0  0
   64.5579   34.7827   81.8464 O   0  0  0  0  0  0
   66.3217   34.1640   83.3823 C   0  0  0  0  0  0
   67.6843   34.0580   83.6310 C   0  0  0  0  0  0
   70.5800   35.4349   83.8472 C   0  0  0  0  0  0
   71.7702   35.3519   84.5659 C   0  0  0  0  0  0
   72.2391   36.3834   85.3295 C   0  0  0  0  0  0
   71.5160   37.5633   85.3992 C   0  0  0  0  0  0
   71.9310   38.6540   86.1083 O   0  0  0  0  0  0
   73.2372   39.1821   85.8992 C   0  0  0  0  0  0
   73.2809   39.6644   84.4745 C   0  0  0  0  0  0
   72.3130   40.6854   84.1804 N   0  0  0  0  0  0
   72.9412   41.9987   84.0290 C   0  0  0  0  0  0
   71.6237   40.3619   82.9260 C   0  0  0  0  0  0
   70.3085   37.6820   84.6893 C   0  0  0  0  0  0
   69.8615   36.6352   83.9329 C   0  0  0  0  0  0
   63.9246   34.7160   82.5337 H   0  0  0  0  0  0
  1  2  1  0  0  0
  2  3  1  0  0  0
  3  4  1  0  0  0
  3 10  1  0  0  0
  4  5  2  0  0  0
  4  9  1  0  0  0
  5  6  1  0  0  0
  6  7  2  0  0  0
  7  8  1  0  0  0
  8  9  2  0  0  0
 10 11  1  0  0  0
 10 18  1  0  0  0
 11 12  2  0  0  0
 11 17  1  0  0  0
 12 13  1  0  0  0
 13 14  2  0  0  0
 14 15  1  0  0  0
 14 16  1  0  0  0
 15 30  1  0  0  0
 16 17  2  0  0  0
 18 19  2  0  0  0
 18 29  1  0  0  0
 19 20  1  0  0  0
 20 21  2  0  0  0
 21 22  1  0  0  0
 21 28  1  0  0  0
 22 23  1  0  0  0
 23 24  1  0  0  0
 24 25  1  0  0  0
 25 26  1  0  0  0
 25 27  1  0  0  0
 28 29  2  0  0  0
M  END
>  <CHROM.0>
-121.04917965,-59.01263527,-44.08019215,177.02643239

>  <CHROM.1>
117.02184132,165.68676255,-48.75440115,-78.71485201,-19.01812653,-167.77011869
52.31774951,63.66356392,60.03882290,107.05002413,70.78014575,35.78346394
83.21406653,-2.18391652,0.01871085,0.35899212

>  <FORMUL>
      OHT    C26 H29 N1 O2

>  <HET>
 OHT  A 600      29

>  <HETNAM>
     OHT 4-HYDROXYTAMOXIFEN

>  <Name>
OHT.pdb

>  <RI>
0

>  <Rbt.Current_Directory>
/home/malgorzata/Desktop/rDOCK_IFD/test5/IFD

>  <Rbt.Executable>
rbdock ($Id: //depot/dev/client3/rdock/2013.1/src/exe/rbdock.cxx#4 $)

>  <Rbt.Library>
libRbt.so (2013.1, Build901 2013/11/27)

>  <Rbt.Parameter_File>
/home/malgorzata/Desktop/rDock_2013.1_src/data/scripts/hard_docking.prm

>  <Rbt.Receptor>
cavity.prm

>  <SCORE>
-1.52616

>  <SCORE.INTER>
3.05076

>  <SCORE.INTER.CONST>
1

>  <SCORE.INTER.POLAR>
-0.453395

>  <SCORE.INTER.REPUL>
0

>  <SCORE.INTER.ROT>
9

>  <SCORE.INTER.VDW>
-9.8077

>  <SCORE.INTER.norm>
0.105199

>  <SCORE.INTRA>
-3.22428

>  <SCORE.INTRA.DIHEDRAL>
-3.31782

>  <SCORE.INTRA.DIHEDRAL.0>
14.7815

>  <SCORE.INTRA.POLAR>
0

>  <SCORE.INTRA.POLAR.0>
0

>  <SCORE.INTRA.REPUL>
0

>  <SCORE.INTRA.REPUL.0>
0

>  <SCORE.INTRA.VDW>
-1.56537

>  <SCORE.INTRA.VDW.0>
-0.0652974

>  <SCORE.INTRA.norm>
-0.111182

>  <SCORE.RESTR>
0.775005

>  <SCORE.RESTR.CAVITY>
0.775005

>  <SCORE.RESTR.norm>
0.0267243

>  <SCORE.SYSTEM>
-2.12765

>  <SCORE.SYSTEM.CONST>
0

>  <SCORE.SYSTEM.DIHEDRAL>
0.828855

>  <SCORE.SYSTEM.REPUL>
1.90204

>  <SCORE.SYSTEM.VDW>
-12.0523

>  <SCORE.SYSTEM.norm>
-0.0733671

>  <SCORE.heavy>
29

>  <SCORE.norm>
-0.0526263

$$$$
OHT.pdb
  rDOCK(R)          3D
libRbt.so/2013.1/901 2013/11/27
 30 32  0  0  0  0  0  0  0  0999 V2000
   69.9036   34.0601   74.2686 C   0  0  0  0  0  0
   68.4747   33.6295   74.0813 C   0  0  0  0  0  0
   67.6771   34.6289   73.2694 C   0  0  0  0  0  0
   66.8856   35.5838   74.1038 C   0  0  0  0  0  0
   67.0085   36.9768   73.9154 C   0  0  0  0  0  0
   66.2328   37.8649   74.6612 C   0  0  0  0  0  0
   65.3311   37.4057   75.6010 C   0  0  0  0  0  0
   65.1995   36.0518   75.7986 C   0  0  0  0  0  0
   65.9703   35.1508   75.0554 C   0  0  0  0  0  0
   67.6882   34.6457   71.9041 C   0  0  0  0  0  0
   67.3281   33.4576   71.0460 C   0  0  0  0  0  0
   68.3282   32.6369   70.4373 C   0  0  0  0  0  0
   67.9658   31.5704   69.6020 C   0  0  0  0  0  0
   66.6017   31.3140   69.3675 C   0  0  0  0  0  0
   66.2750   30.2846   68.5361 O   0  0  0  0  0  0
   65.6043   32.1168   69.9663 C   0  0  0  0  0  0
   65.9843   33.1692   70.7896 C   0  0  0  0  0  0
   68.0725   35.8322   71.1335 C   0  0  0  0  0  0
   67.2319   36.3795   70.1671 C   0  0  0  0  0  0
   67.5624   37.4990   69.4568 C   0  0  0  0  0  0
   68.7746   38.1256   69.6975 C   0  0  0  0  0  0
   69.1658   39.2676   69.0593 O   0  0  0  0  0  0
   68.2699   39.9263   68.1691 C   0  0  0  0  0  0
   69.0616   41.0107   67.4897 C   0  0  0  0  0  0
   70.1123   40.5148   66.6436 N   0  0  0  0  0  0
   69.7393   40.5696   65.2294 C   0  0  0  0  0  0
   71.3183   41.3300   66.8293 C   0  0  0  0  0  0
   69.6497   37.5995   70.6636 C   0  0  0  0  0  0
   69.2951   36.4785   71.3603 C   0  0  0  0  0  0
   66.9505   29.7738   68.1350 H   0  0  0  0  0  0
  1  2  1  0  0  0
  2  3  1  0  0  0
  3  4  1  0  0  0
  3 10  1  0  0  0
  4  5  2  0  0  0
  4  9  1  0  0  0
  5  6  1  0  0  0
  6  7  2  0  0  0
  7  8  1  0  0  0
  8  9  2  0  0  0
 10 11  1  0  0  0
 10 18  1  0  0  0
 11 12  2  0  0  0
 11 17  1  0  0  0
 12 13  1  0  0  0
 13 14  2  0  0  0
 14 15  1  0  0  0
 14 16  1  0  0  0
 15 30  1  0  0  0
 16 17  2  0  0  0
 18 19  2  0  0  0
 18 29  1  0  0  0
 19 20  1  0  0  0
 20 21  2  0  0  0
 21 22  1  0  0  0
 21 28  1  0  0  0
 22 23  1  0  0  0
 23 24  1  0  0  0
 24 25  1  0  0  0
 25 26  1  0  0  0
 25 27  1  0  0  0
 28 29  2  0  0  0
M  END
>  <CHROM.0>
-165.21946332,-58.99575245,-62.85851734,-171.16590718

>  <CHROM.1>
-96.69903840,126.84730212,56.12854944,-100.68068891,-124.98754998,-0.35871360
4.75993216,-171.85373503,65.37702524,102.25162357,67.86838104,36.08563002
70.88066303,2.96079456,-1.24210982,-2.43772799

>  <FORMUL>
      OHT    C26 H29 N1 O2

>  <HET>
 OHT  A 600      29

>  <HETNAM>
     OHT 4-HYDROXYTAMOXIFEN

>  <Name>
OHT.pdb

>  <RI>
0

>  <Rbt.Current_Directory>
/home/malgorzata/Desktop/rDOCK_IFD/test5/IFD

>  <Rbt.Executable>
rbdock ($Id: //depot/dev/client3/rdock/2013.1/src/exe/rbdock.cxx#4 $)

>  <Rbt.Library>
libRbt.so (2013.1, Build901 2013/11/27)

>  <Rbt.Parameter_File>
/home/malgorzata/Desktop/rDock_2013.1_src/data/scripts/hard_docking.prm

>  <Rbt.Receptor>
cavity.prm

>  <SCORE>
-25.1384

>  <SCORE.INTER>
-16.9808

>  <SCORE.INTER.CONST>
1

>  <SCORE.INTER.POLAR>
-0.824621

>  <SCORE.INTER.REPUL>
0.0291614

>  <SCORE.INTER.ROT>
9

>  <SCORE.INTER.VDW>
-28.7229

>  <SCORE.INTER.norm>
-0.585544

>  <SCORE.INTRA>
-5.84424

>  <SCORE.INTRA.DIHEDRAL>
-5.6258

>  <SCORE.INTRA.DIHEDRAL.0>
14.7815

>  <SCORE.INTRA.POLAR>
0

>  <SCORE.INTRA.POLAR.0>
0

>  <SCORE.INTRA.REPUL>
0

>  <SCORE.INTRA.REPUL.0>
0

>  <SCORE.INTRA.VDW>
-3.03134

>  <SCORE.INTRA.VDW.0>
-0.0652974

>  <SCORE.INTRA.norm>
-0.201526

>  <SCORE.RESTR>
0

>  <SCORE.RESTR.CAVITY>
0

>  <SCORE.RESTR.norm>
0

>  <SCORE.SYSTEM>
-2.31337

>  <SCORE.SYSTEM.CONST>
0

>  <SCORE.SYSTEM.DIHEDRAL>
0.921213

>  <SCORE.SYSTEM.REPUL>
1.89946

>  <SCORE.SYSTEM.VDW>
-12.2713

>  <SCORE.SYSTEM.norm>
-0.0797712

>  <SCORE.heavy>
29

>  <SCORE.norm>
-0.866841

$$$$
OHT.pdb
  rDOCK(R)          3D
libRbt.so/2013.1/901 2013/11/27
 30 32  0  0  0  0  0  0  0  0999 V2000
   67.9874   32.6312   86.2017 C   0  0  0  0  0  0
   67.2226   32.5394   84.9098 C   0  0  0  0  0  0
   67.4798   33.7275   84.0063 C   0  0  0  0  0  0
   66.3273   34.6755   83.9195 C   0  0  0  0  0  0
   65.9111   35.4079   85.0516 C   0  0  0  0  0  0
   64.8669   36.3284   84.9566 C   0  0  0  0  0  0
   64.2146   36.5432   83.7585 C   0  0  0  0  0  0
   64.6061   35.8373   82.6459 C   0  0  0  0  0  0
   65.6534   34.9127   82.7277 C   0  0  0  0  0  0
   68.6579   33.9046   83.3390 C   0  0  0  0  0  0
   69.2266   32.9082   82.3588 C   0  0  0  0  0  0
   69.2215   33.1502   80.9496 C   0  0  0  0  0  0
   69.7088   32.1845   80.0572 C   0  0  0  0  0  0
   70.2055   30.9687   80.5641 C   0  0  0  0  0  0
   70.6549   30.0379   79.6757 O   0  0  0  0  0  0
   70.2182   30.7197   81.9554 C   0  0  0  0  0  0
   69.7299   31.6890   82.8225 C   0  0  0  0  0  0
   69.5005   35.0894   83.5281 C   0  0  0  0  0  0
   69.4882   36.1468   82.6216 C   0  0  0  0  0  0
   70.2478   37.2695   82.7942 C   0  0  0  0  0  0
   71.0637   37.3754   83.9092 C   0  0  0  0  0  0
   71.8257   38.4766   84.1762 O   0  0  0  0  0  0
   73.1105   38.6137   83.5767 C   0  0  0  0  0  0
   73.9574   37.4943   84.1187 C   0  0  0  0  0  0
   75.1919   37.3071   83.4067 N   0  0  0  0  0  0
   76.2932   36.9750   84.3116 C   0  0  0  0  0  0
   75.0430   36.2077   82.4463 C   0  0  0  0  0  0
   71.1038   36.3263   84.8439 C   0  0  0  0  0  0
   70.3342   35.2141   84.6477 C   0  0  0  0  0  0
   70.8960   29.1831   79.9745 H   0  0  0  0  0  0
  1  2  1  0  0  0
  2  3  1  0  0  0
  3  4  1  0  0  0
  3 10  1  0  0  0
  4  5  2  0  0  0
  4  9  1  0  0  0
  5  6  1  0  0  0
  6  7  2  0  0  0
  7  8  1  0  0  0
  8  9  2  0  0  0
 10 11  1  0  0  0
 10 18  1  0  0  0
 11 12  2  0  0  0
 11 17  1  0  0  0
 12 13  1  0  0  0
 13 14  2  0  0  0
 14 15  1  0  0  0
 14 16  1  0  0  0
 15 30  1  0  0  0
 16 17  2  0  0  0
 18 19  2  0  0  0
 18 29  1  0  0  0
 19 20  1  0  0  0
 20 21  2  0  0  0
 21 22  1  0  0  0
 21 28  1  0  0  0
 22 23  1  0  0  0
 23 24  1  0  0  0
 24 25  1  0  0  0
 25 26  1  0  0  0
 25 27  1  0  0  0
 28 29  2  0  0  0
M  END
>  <CHROM.0>
-124.01031664,-58.98146129,-82.90016186,27.06481340

>  <CHROM.1>
-107.25185981,65.55160911,58.33063556,107.05139141,-100.18369956,-172.77367221
-84.19991518,-64.53701173,167.28176508,141.56804163,69.73744937,34.85841036
83.25179262,2.76439757,-0.16713630,-2.67025145

>  <FORMUL>
      OHT    C26 H29 N1 O2

>  <HET>
 OHT  A 600      29

>  <HETNAM>
     OHT 4-HYDROXYTAMOXIFEN

>  <Name>
OHT.pdb

>  <RI>
0

>  <Rbt.Current_Directory>
/home/malgorzata/Desktop/rDOCK_IFD/test5/IFD

>  <Rbt.Executable>
rbdock ($Id: //depot/dev/client3/rdock/2013.1/src/exe/rbdock.cxx#4 $)

>  <Rbt.Library>
libRbt.so (2013.1, Build901 2013/11/27)

>  <Rbt.Parameter_File>
/home/malgorzata/Desktop/rDock_2013.1_src/data/scripts/hard_docking.prm

>  <Rbt.Receptor>
cavity.prm

>  <SCORE>
1.23109

>  <SCORE.INTER>
3.94427

>  <SCORE.INTER.CONST>
1

>  <SCORE.INTER.POLAR>
0

>  <SCORE.INTER.REPUL>
0

>  <SCORE.INTER.ROT>
9

>  <SCORE.INTER.VDW>
-10.4557

>  <SCORE.INTER.norm>
0.136009

>  <SCORE.INTRA>
-4.50668

>  <SCORE.INTRA.DIHEDRAL>
-1.38746

>  <SCORE.INTRA.DIHEDRAL.0>
14.7815

>  <SCORE.INTRA.POLAR>
0

>  <SCORE.INTRA.POLAR.0>
0

>  <SCORE.INTRA.REPUL>
0

>  <SCORE.INTRA.REPUL.0>
0

>  <SCORE.INTRA.VDW>
-3.81295

>  <SCORE.INTRA.VDW.0>
-0.0652974

>  <SCORE.INTRA.norm>
-0.155403

>  <SCORE.RESTR>
4.1354

>  <SCORE.RESTR.CAVITY>
4.1354

>  <SCORE.RESTR.norm>
0.1426

>  <SCORE.SYSTEM>
-2.3419

>  <SCORE.SYSTEM.CONST>
0

>  <SCORE.SYSTEM.DIHEDRAL>
1.79189

>  <SCORE.SYSTEM.REPUL>
1.89726

>  <SCORE.SYSTEM.VDW>
-12.7242

>  <SCORE.SYSTEM.norm>
-0.080755

>  <SCORE.heavy>
29

>  <SCORE.norm>
0.0424515

$$$$
OHT.pdb
  rDOCK(R)          3D
libRbt.so/2013.1/901 2013/11/27
 30 32  0  0  0  0  0  0  0  0999 V2000
   68.3669   31.5335   84.7565 C   0  0  0  0  0  0
   68.1211   32.2016   83.4316 C   0  0  0  0  0  0
   68.3207   33.7015   83.5007 C   0  0  0  0  0  0
   67.0425   34.4756   83.5358 C   0  0  0  0  0  0
   66.2239   34.5655   82.3900 C   0  0  0  0  0  0
   65.0076   35.2473   82.4386 C   0  0  0  0  0  0
   64.5768   35.8516   83.6033 C   0  0  0  0  0  0
   65.3623   35.7751   84.7287 C   0  0  0  0  0  0
   66.5835   35.0925   84.6932 C   0  0  0  0  0  0
   69.5574   34.2799   83.5276 C   0  0  0  0  0  0
   70.7534   33.7417   82.7812 C   0  0  0  0  0  0
   71.2974   32.4494   83.0611 C   0  0  0  0  0  0
   72.4413   31.9951   82.3891 C   0  0  0  0  0  0
   73.0518   32.8271   81.4317 C   0  0  0  0  0  0
   74.1740   32.3715   80.8065 O   0  0  0  0  0  0
   72.5211   34.1053   81.1446 C   0  0  0  0  0  0
   71.3879   34.5371   81.8223 C   0  0  0  0  0  0
   69.8464   35.4863   84.3089 C   0  0  0  0  0  0
   69.6357   36.7612   83.7892 C   0  0  0  0  0  0
   69.8758   37.8963   84.5111 C   0  0  0  0  0  0
   70.3441   37.7909   85.8109 C   0  0  0  0  0  0
   70.5746   38.8719   86.6126 O   0  0  0  0  0  0
   71.9014   39.1738   87.0339 C   0  0  0  0  0  0
   72.7074   39.3968   85.7829 C   0  0  0  0  0  0
   72.1952   40.4465   84.9453 N   0  0  0  0  0  0
   72.9124   41.7049   85.1556 C   0  0  0  0  0  0
   72.3439   40.0666   83.5357 C   0  0  0  0  0  0
   70.5712   36.5202   86.3675 C   0  0  0  0  0  0
   70.3231   35.4006   85.6240 C   0  0  0  0  0  0
   74.5076   32.8219   80.0557 H   0  0  0  0  0  0
  1  2  1  0  0  0
  2  3  1  0  0  0
  3  4  1  0  0  0
  3 10  1  0  0  0
  4  5  2  0  0  0
  4  9  1  0  0  0
  5  6  1  0  0  0
  6  7  2  0  0  0
  7  8  1  0  0  0
  8  9  2  0  0  0
 10 11  1  0  0  0
 10 18  1  0  0  0
 11 12  2  0  0  0
 11 17  1  0  0  0
 12 13  1  0  0  0
 13 14  2  0  0  0
 14 15  1  0  0  0
 14 16  1  0  0  0
 15 30  1  0  0  0
 16 17  2  0  0  0
 18 19  2  0  0  0
 18 29  1  0  0  0
 19 20  1  0  0  0
 20 21  2  0  0  0
 21 22  1  0  0  0
 21 28  1  0  0  0
 22 23  1  0  0  0
 23 24  1  0  0  0
 24 25  1  0  0  0
 25 26  1  0  0  0
 25 27  1  0  0  0
 28 29  2  0  0  0
M  END
>  <CHROM.0>
-126.96759980,-58.93575168,-120.78316688,14.94119082

>  <CHROM.1>
-103.46086543,-71.11582364,35.12355314,-62.30709071,-86.91701170,168.28303498
-114.69669285,59.45943295,58.11052794,98.23247265,70.01054015,35.72131090
83.92886408,2.00272304,-0.16904835,-2.68951022

>  <FORMUL>
      OHT    C26 H29 N1 O2

>  <HET>
 OHT  A 600      29

>  <HETNAM>
     OHT 4-HYDROXYTAMOXIFEN

>  <Name>
OHT.pdb

>  <RI>
0

>  <Rbt.Current_Directory>
/home/malgorzata/Desktop/rDOCK_IFD/test5/IFD

>  <Rbt.Executable>
rbdock ($Id: //depot/dev/client3/rdock/2013.1/src/exe/rbdock.cxx#4 $)

>  <Rbt.Library>
libRbt.so (2013.1, Build901 2013/11/27)

>  <Rbt.Parameter_File>
/home/malgorzata/Desktop/rDock_2013.1_src/data/scripts/hard_docking.prm

>  <Rbt.Receptor>
cavity.prm

>  <SCORE>
-5.00536

>  <SCORE.INTER>
1.30488

>  <SCORE.INTER.CONST>
1

>  <SCORE.INTER.POLAR>
-0.925578

>  <SCORE.INTER.REPUL>
0

>  <SCORE.INTER.ROT>
9

>  <SCORE.INTER.VDW>
-9.94815

>  <SCORE.INTER.norm>
0.044996

>  <SCORE.INTRA>
-5.00639

>  <SCORE.INTRA.DIHEDRAL>
-2.26632

>  <SCORE.INTRA.DIHEDRAL.0>
14.7815

>  <SCORE.INTRA.POLAR>
0

>  <SCORE.INTRA.POLAR.0>
0

>  <SCORE.INTRA.REPUL>
0

>  <SCORE.INTRA.REPUL.0>
0

>  <SCORE.INTRA.VDW>
-3.87323

>  <SCORE.INTRA.VDW.0>
-0.0652974

>  <SCORE.INTRA.norm>
-0.172634

>  <SCORE.RESTR>
1.31054

>  <SCORE.RESTR.CAVITY>
1.31054

>  <SCORE.RESTR.norm>
0.0451909

>  <SCORE.SYSTEM>
-2.61439

>  <SCORE.SYSTEM.CONST>
0

>  <SCORE.SYSTEM.DIHEDRAL>
1.12974

>  <SCORE.SYSTEM.REPUL>
1.89022

>  <SCORE.SYSTEM.VDW>
-12.6304

>  <SCORE.SYSTEM.norm>
-0.0901515

>  <SCORE.heavy>
29

>  <SCORE.norm>
-0.172599

$$$$
OHT.pdb
  rDOCK(R)          3D
libRbt.so/2013.1/901 2013/11/27
 30 32  0  0  0  0  0  0  0  0999 V2000
   68.0254   39.2628   80.2620 C   0  0  0  0  0  0
   67.5053   39.3826   81.6682 C   0  0  0  0  0  0
   67.9816   38.2496   82.5534 C   0  0  0  0  0  0
   66.8766   37.5466   83.2741 C   0  0  0  0  0  0
   66.7548   37.6456   84.6764 C   0  0  0  0  0  0
   65.6947   37.0291   85.3418 C   0  0  0  0  0  0
   64.7434   36.3067   84.6487 C   0  0  0  0  0  0
   64.8474   36.1987   83.2823 C   0  0  0  0  0  0
   65.9049   36.8142   82.6031 C   0  0  0  0  0  0
   69.2992   37.9120   82.6735 C   0  0  0  0  0  0
   70.3837   38.8852   83.0661 C   0  0  0  0  0  0
   71.1994   38.6785   84.2221 C   0  0  0  0  0  0
   72.1649   39.6252   84.5936 C   0  0  0  0  0  0
   72.3246   40.7863   83.8139 C   0  0  0  0  0  0
   73.2555   41.7010   84.2066 O   0  0  0  0  0  0
   71.5260   40.9997   82.6673 C   0  0  0  0  0  0
   70.5743   40.0503   82.3172 C   0  0  0  0  0  0
   69.7925   36.5563   82.4124 C   0  0  0  0  0  0
   70.2792   36.1844   81.1615 C   0  0  0  0  0  0
   70.7659   34.9332   80.9064 C   0  0  0  0  0  0
   70.7846   33.9895   81.9208 C   0  0  0  0  0  0
   71.2869   32.7298   81.7609 O   0  0  0  0  0  0
   70.4009   31.6304   81.5733 C   0  0  0  0  0  0
   71.2639   30.4109   81.3941 C   0  0  0  0  0  0
   72.1123   30.4689   80.2353 N   0  0  0  0  0  0
   73.4710   30.8896   80.5802 C   0  0  0  0  0  0
   72.1891   29.1408   79.6160 C   0  0  0  0  0  0
   70.2986   34.3286   83.1954 C   0  0  0  0  0  0
   69.8171   35.5871   83.4243 C   0  0  0  0  0  0
   73.7903   41.5326   84.9574 H   0  0  0  0  0  0
  1  2  1  0  0  0
  2  3  1  0  0  0
  3  4  1  0  0  0
  3 10  1  0  0  0
  4  5  2  0  0  0
  4  9  1  0  0  0
  5  6  1  0  0  0
  6  7  2  0  0  0
  7  8  1  0  0  0
  8  9  2  0  0  0
 10 11  1  0  0  0
 10 18  1  0  0  0
 11 12  2  0  0  0
 11 17  1  0  0  0
 12 13  1  0  0  0
 13 14  2  0  0  0
 14 15  1  0  0  0
 14 16  1  0  0  0
 15 30  1  0  0  0
 16 17  2  0  0  0
 18 19  2  0  0  0
 18 29  1  0  0  0
 19 20  1  0  0  0
 20 21  2  0  0  0
 21 22  1  0  0  0
 21 28  1  0  0  0
 22 23  1  0  0  0
 23 24  1  0  0  0
 24 25  1  0  0  0
 25 26  1  0  0  0
 25 27  1  0  0  0
 28 29  2  0  0  0
M  END
>  <CHROM.0>
113.42428906,-58.91135749,127.78695721,2.87545462

>  <CHROM.1>
-127.58245319,-112.11138784,54.60526368,121.02348857,93.37348043,2.33961411
-101.75318030,178.49954985,-62.42448467,98.30673074,69.78314845,36.26837080
82.51084897,1.83756489,0.16388097,0.25060873

>  <FORMUL>
      OHT    C26 H29 N1 O2

>  <HET>
 OHT  A 600      29

>  <HETNAM>
     OHT 4-HYDROXYTAMOXIFEN

>  <Name>
OHT.pdb

>  <RI>
0

>  <Rbt.Current_Directory>
/home/malgorzata/Desktop/rDOCK_IFD/test5/IFD

>  <Rbt.Executable>
rbdock ($Id: //depot/dev/client3/rdock/2013.1/src/exe/rbdock.cxx#4 $)

>  <Rbt.Library>
libRbt.so (2013.1, Build901 2013/11/27)

>  <Rbt.Parameter_File>
/home/malgorzata/Desktop/rDock_2013.1_src/data/scripts/hard_docking.prm

>  <Rbt.Receptor>
cavity.prm

>  <SCORE>
-12.4106

>  <SCORE.INTER>
-5.89432

>  <SCORE.INTER.CONST>
1

>  <SCORE.INTER.POLAR>
0

>  <SCORE.INTER.REPUL>
0

>  <SCORE.INTER.ROT>
9

>  <SCORE.INTER.VDW>
-20.2943

>  <SCORE.INTER.norm>
-0.203252

>  <SCORE.INTRA>
-4.69876

>  <SCORE.INTRA.DIHEDRAL>
-2.38281

>  <SCORE.INTRA.DIHEDRAL.0>
14.7815

>  <SCORE.INTRA.POLAR>
0

>  <SCORE.INTRA.POLAR.0>
0

>  <SCORE.INTRA.REPUL>
0

>  <SCORE.INTRA.REPUL.0>
0

>  <SCORE.INTRA.VDW>
-3.50735

>  <SCORE.INTRA.VDW.0>
-0.0652974

>  <SCORE.INTRA.norm>
-0.162026

>  <SCORE.RESTR>
0.674074

>  <SCORE.RESTR.CAVITY>
0.674074

>  <SCORE.RESTR.norm>
0.0232439

>  <SCORE.SYSTEM>
-2.49162

>  <SCORE.SYSTEM.CONST>
0

>  <SCORE.SYSTEM.DIHEDRAL>
0.817402

>  <SCORE.SYSTEM.REPUL>
1.88644

>  <SCORE.SYSTEM.VDW>
-12.3325

>  <SCORE.SYSTEM.norm>
-0.0859179

>  <SCORE.heavy>
29

>  <SCORE.norm>
-0.427952

$$$$
OHT.pdb
  rDOCK(R)          3D
libRbt.so/2013.1/901 2013/11/27
 30 32  0  0  0  0  0  0  0  0999 V2000
   68.9877   36.5838   78.5541 C   0  0  0  0  0  0
   68.4680   35.4060   79.3318 C   0  0  0  0  0  0
   68.9524   35.4084   80.7669 C   0  0  0  0  0  0
   69.9304   34.3197   81.0715 C   0  0  0  0  0  0
   69.5014   32.9812   81.1960 C   0  0  0  0  0  0
   70.4224   31.9599   81.4317 C   0  0  0  0  0  0
   71.7710   32.2319   81.5519 C   0  0  0  0  0  0
   72.2063   33.5305   81.4347 C   0  0  0  0  0  0
   71.2927   34.5634   81.1963 C   0  0  0  0  0  0
   68.5280   36.3242   81.6865 C   0  0  0  0  0  0
   67.1958   36.2518   82.3918 C   0  0  0  0  0  0
   66.8895   37.0865   83.5115 C   0  0  0  0  0  0
   65.6637   36.9619   84.1811 C   0  0  0  0  0  0
   64.7330   36.0031   83.7384 C   0  0  0  0  0  0
   63.5572   35.8872   84.4178 O   0  0  0  0  0  0
   65.0238   35.1745   82.6307 C   0  0  0  0  0  0
   66.2443   35.3129   81.9819 C   0  0  0  0  0  0
   69.3321   37.4892   82.0678 C   0  0  0  0  0  0
   68.8774   38.7896   81.8624 C   0  0  0  0  0  0
   69.6019   39.8871   82.2337 C   0  0  0  0  0  0
   70.8357   39.7156   82.8406 C   0  0  0  0  0  0
   71.6063   40.7558   83.2751 O   0  0  0  0  0  0
   72.9534   40.5231   83.6751 C   0  0  0  0  0  0
   72.8905   39.8479   85.0184 C   0  0  0  0  0  0
   72.0598   40.5326   85.9707 N   0  0  0  0  0  0
   71.5167   39.6149   86.9732 C   0  0  0  0  0  0
   72.8505   41.5537   86.6675 C   0  0  0  0  0  0
   71.3280   38.4176   83.0612 C   0  0  0  0  0  0
   70.5834   37.3367   82.6802 C   0  0  0  0  0  0
   62.9474   35.2141   84.1876 H   0  0  0  0  0  0
  1  2  1  0  0  0
  2  3  1  0  0  0
  3  4  1  0  0  0
  3 10  1  0  0  0
  4  5  2  0  0  0
  4  9  1  0  0  0
  5  6  1  0  0  0
  6  7  2  0  0  0
  7  8  1  0  0  0
  8  9  2  0  0  0
 10 11  1  0  0  0
 10 18  1  0  0  0
 11 12  2  0  0  0
 11 17  1  0  0  0
 12 13  1  0  0  0
 13 14  2  0  0  0
 14 15  1  0  0  0
 14 16  1  0  0  0
 15 30  1  0  0  0
 16 17  2  0  0  0
 18 19  2  0  0  0
 18 29  1  0  0  0
 19 20  1  0  0  0
 20 21  2  0  0  0
 21 22  1  0  0  0
 21 28  1  0  0  0
 22 23  1  0  0  0
 23 24  1  0  0  0
 24 25  1  0  0  0
 25 26  1  0  0  0
 25 27  1  0  0  0
 28 29  2  0  0  0
M  END
>  <CHROM.0>
-115.13593090,-58.90834371,-81.32632137,-178.29942590

>  <CHROM.1>
-110.56808637,-73.80574963,78.42964503,168.64270601,118.84709151,-175.28473947
-169.12873938,-74.41586456,-50.98123799,153.24862278,69.45779148,36.98982145
82.72422421,-2.16511504,0.14345391,0.61076747

>  <FORMUL>
      OHT    C26 H29 N1 O2

>  <HET>
 OHT  A 600      29

>  <HETNAM>
     OHT 4-HYDROXYTAMOXIFEN

>  <Name>
OHT.pdb

>  <RI>
0

>  <Rbt.Current_Directory>
/home/malgorzata/Desktop/rDOCK_IFD/test5/IFD

>  <Rbt.Executable>
rbdock ($Id: //depot/dev/client3/rdock/2013.1/src/exe/rbdock.cxx#4 $)

>  <Rbt.Library>
libRbt.so (2013.1, Build901 2013/11/27)

>  <Rbt.Parameter_File>
/home/malgorzata/Desktop/rDock_2013.1_src/data/scripts/hard_docking.prm

>  <Rbt.Receptor>
cavity.prm

>  <SCORE>
-9.10191

>  <SCORE.INTER>
-5.74875

>  <SCORE.INTER.CONST>
1

>  <SCORE.INTER.POLAR>
-0.598188

>  <SCORE.INTER.REPUL>
0

>  <SCORE.INTER.ROT>
9

>  <SCORE.INTER.VDW>
-18.1149

>  <SCORE.INTER.norm>
-0.198233

>  <SCORE.INTRA>
-2.27911

>  <SCORE.INTRA.DIHEDRAL>
-6.06727

>  <SCORE.INTRA.DIHEDRAL.0>
14.7815

>  <SCORE.INTRA.POLAR>
0

>  <SCORE.INTRA.POLAR.0>
0

>  <SCORE.INTRA.REPUL>
0

>  <SCORE.INTRA.REPUL.0>
0

>  <SCORE.INTRA.VDW>
0.754525

>  <SCORE.INTRA.VDW.0>
-0.0652974

>  <SCORE.INTRA.norm>
-0.0785899

>  <SCORE.RESTR>
1.44204

>  <SCORE.RESTR.CAVITY>
1.44204

>  <SCORE.RESTR.norm>
0.0497257

>  <SCORE.SYSTEM>
-2.5161

>  <SCORE.SYSTEM.CONST>
0

>  <SCORE.SYSTEM.DIHEDRAL>
0.80132

>  <SCORE.SYSTEM.REPUL>
1.88597

>  <SCORE.SYSTEM.VDW>
-12.3466

>  <SCORE.SYSTEM.norm>
-0.0867622

>  <SCORE.heavy>
29

>  <SCORE.norm>
-0.313859

$$$$
OHT.pdb
  rDOCK(R)          3D
libRbt.so/2013.1/901 2013/11/27
 30 32  0  0  0  0  0  0  0  0999 V2000
   66.6615   38.1150   73.2500 C   0  0  0  0  0  0
   68.1137   37.7265   73.2993 C   0  0  0  0  0  0
   68.3606   36.3566   72.7022 C   0  0  0  0  0  0
   68.6092   35.2934   73.7232 C   0  0  0  0  0  0
   69.9044   34.7667   73.9130 C   0  0  0  0  0  0
   70.1438   33.8098   74.8997 C   0  0  0  0  0  0
   69.1232   33.3531   75.7103 C   0  0  0  0  0  0
   67.8548   33.8544   75.5383 C   0  0  0  0  0  0
   67.6024   34.8160   74.5534 C   0  0  0  0  0  0
   68.3544   36.1272   71.3561 C   0  0  0  0  0  0
   67.8545   34.8518   70.7232 C   0  0  0  0  0  0
   66.5683   34.7715   70.1039 C   0  0  0  0  0  0
   66.1071   33.5598   69.5697 C   0  0  0  0  0  0
   66.9263   32.4177   69.6490 C   0  0  0  0  0  0
   66.4478   31.2471   69.1407 O   0  0  0  0  0  0
   68.2008   32.4859   70.2562 C   0  0  0  0  0  0
   68.6386   33.6956   70.7805 C   0  0  0  0  0  0
   68.8555   37.1069   70.3874 C   0  0  0  0  0  0
   70.2127   37.2159   70.0940 C   0  0  0  0  0  0
   70.6953   38.1057   69.1761 C   0  0  0  0  0  0
   69.8135   38.9352   68.5021 C   0  0  0  0  0  0
   70.2077   39.8254   67.5446 O   0  0  0  0  0  0
   69.7812   39.6538   66.1965 C   0  0  0  0  0  0
   70.2396   40.8735   65.4439 C   0  0  0  0  0  0
   71.6356   41.1684   65.6173 N   0  0  0  0  0  0
   72.3150   41.3435   64.3328 C   0  0  0  0  0  0
   71.7836   42.4102   66.3849 C   0  0  0  0  0  0
   68.4369   38.8551   68.7747 C   0  0  0  0  0  0
   67.9800   37.9565   69.6976 C   0  0  0  0  0  0
   66.9432   30.4576   69.2361 H   0  0  0  0  0  0
  1  2  1  0  0  0
  2  3  1  0  0  0
  3  4  1  0  0  0
  3 10  1  0  0  0
  4  5  2  0  0  0
  4  9  1  0  0  0
  5  6  1  0  0  0
  6  7  2  0  0  0
  7  8  1  0  0  0
  8  9  2  0  0  0
 10 11  1  0  0  0
 10 18  1  0  0  0
 11 12  2  0  0  0
 11 17  1  0  0  0
 12 13  1  0  0  0
 13 14  2  0  0  0
 14 15  1  0  0  0
 14 16  1  0  0  0
 15 30  1  0  0  0
 16 17  2  0  0  0
 18 19  2  0  0  0
 18 29  1  0  0  0
 19 20  1  0  0  0
 20 21  2  0  0  0
 21 22  1  0  0  0
 21 28  1  0  0  0
 22 23  1  0  0  0
 23 24  1  0  0  0
 24 25  1  0  0  0
 25 26  1  0  0  0
 25 27  1  0  0  0
 28 29  2  0  0  0
M  END
>  <CHROM.0>
-133.56827767,-59.15289314,-73.85310614,7.24655799

>  <CHROM.1>
-104.68436682,-106.94366484,-145.34792815,102.01714430,82.64240555,-175.45093516
114.93104367,173.24286764,51.70464619,128.42362338,68.90170274,36.65165182
70.28785374,-2.31377103,-1.12935674,-1.47870364

>  <FORMUL>
      OHT    C26 H29 N1 O2

>  <HET>
 OHT  A 600      29

>  <HETNAM>
     OHT 4-HYDROXYTAMOXIFEN

>  <Name>
OHT.pdb

>  <RI>
0

>  <Rbt.Current_Directory>
/home/malgorzata/Desktop/rDOCK_IFD/test5/IFD

>  <Rbt.Executable>
rbdock ($Id: //depot/dev/client3/rdock/2013.1/src/exe/rbdock.cxx#4 $)

>  <Rbt.Library>
libRbt.so (2013.1, Build901 2013/11/27)

>  <Rbt.Parameter_File>
/home/malgorzata/Desktop/rDock_2013.1_src/data/scripts/hard_docking.prm

>  <Rbt.Receptor>
cavity.prm

>  <SCORE>
-18.8109

>  <SCORE.INTER>
-12.156

>  <SCORE.INTER.CONST>
1

>  <SCORE.INTER.POLAR>
0

>  <SCORE.INTER.REPUL>
0

>  <SCORE.INTER.ROT>
9

>  <SCORE.INTER.VDW>
-26.556

>  <SCORE.INTER.norm>
-0.419172

>  <SCORE.INTRA>
-4.98486

>  <SCORE.INTRA.DIHEDRAL>
-1.40451

>  <SCORE.INTRA.DIHEDRAL.0>
14.7815

>  <SCORE.INTRA.POLAR>
0

>  <SCORE.INTRA.POLAR.0>
0

>  <SCORE.INTRA.REPUL>
0

>  <SCORE.INTRA.REPUL.0>
0

>  <SCORE.INTRA.VDW>
-4.2826

>  <SCORE.INTRA.VDW.0>
-0.0652974

>  <SCORE.INTRA.norm>
-0.171892

>  <SCORE.RESTR>
0.922162

>  <SCORE.RESTR.CAVITY>
0.922162

>  <SCORE.RESTR.norm>
0.0317987

>  <SCORE.SYSTEM>
-2.59217

>  <SCORE.SYSTEM.CONST>
0

>  <SCORE.SYSTEM.DIHEDRAL>
0.876848

>  <SCORE.SYSTEM.REPUL>
1.92319

>  <SCORE.SYSTEM.VDW>
-12.6465

>  <SCORE.SYSTEM.norm>
-0.0893852

>  <SCORE.heavy>
29

>  <SCORE.norm>
-0.64865

$$$$
