TOL.pdb
  rDOCK(R)          3D
libRbt.so/2013.1/901 2013/11/27
 25 26  0  0  0  0  0  0  0  0999 V2000
   27.5442   18.2008   71.9022 C   0  0  0  0  0  0
   26.8139   17.7980   70.8320 F   0  0  0  0  0  0
   28.5732   17.3218   72.0316 F   0  0  0  0  0  0
   28.0843   19.4142   71.6111 F   0  0  0  0  0  0
   26.6828   18.2782   73.1813 C   0  0  0  0  0  0
   25.2958   17.9798   73.2192 C   0  0  0  0  0  0
   24.6758   17.6111   72.1129 O   0  0  0  0  0  0
   23.9210   18.6587   71.5268 C   0  0  0  0  0  0
   24.5984   18.0856   74.4426 C   0  0  0  0  0  0
   25.2585   18.4793   75.6121 C   0  0  0  0  0  0
   26.6348   18.7788   75.5779 C   0  0  0  0  0  0
   27.2900   19.1769   76.7666 C   0  0  0  0  0  0
   28.6623   19.4741   76.7321 C   0  0  0  0  0  0
   29.3764   19.3799   75.5354 C   0  0  0  0  0  0
   28.7233   18.9845   74.3612 C   0  0  0  0  0  0
   27.3493   18.6805   74.3690 C   0  0  0  0  0  0
   26.5970   19.3049   78.1027 C   0  0  0  0  0  0
   25.2195   20.3142   78.2446 S   0  0  0  0  0  0
   27.0566   18.6201   79.1511 N   0  0  0  0  0  0
   28.1640   17.6865   78.9785 C   0  0  0  0  0  0
   26.4659   18.7639   80.4779 C   0  0  0  0  0  0
   25.3310   17.7507   80.7056 C   0  0  0  0  0  0
   24.7015   17.2768   79.7967 O   0  0  0  0  0  0
   25.0978   17.4281   81.9826 O   0  0  0  0  0  0
   24.4087   16.8303   82.1965 H   0  0  0  0  0  0
  1  2  1  0  0  0
  1  3  1  0  0  0
  1  4  1  0  0  0
  1  5  1  0  0  0
  5  6  2  0  0  0
  5 16  1  0  0  0
  6  7  1  0  0  0
  6  9  1  0  0  0
  7  8  1  0  0  0
  9 10  2  0  0  0
 10 11  1  0  0  0
 11 12  2  0  0  0
 11 16  1  0  0  0
 12 13  1  0  0  0
 12 17  1  0  0  0
 13 14  2  0  0  0
 14 15  1  0  0  0
 15 16  2  0  0  0
 17 18  2  0  0  0
 17 19  1  0  0  0
 19 20  1  0  0  0
 19 21  1  0  0  0
 21 22  1  0  0  0
 22 23  2  0  0  0
 22 24  1  0  0  0
 24 25  1  0  0  0
M  END
>  <CHROM.0>
44.00293342,1.33717999,0.13511182,141.09324715,65.22210705,-61.13991987,162.15645154
179.93046055,-51.16097643,-61.54190337,-69.88099388,-61.41326028,-60.50081437
-110.15369681

>  <CHROM.1>
-0.76248381,-101.59411445,-55.54506106,90.51174075,-25.34600279,178.71163088
26.52177192,18.52605807,75.73884237,-1.45702882,0.15170218,1.53532546

>  <FORMUL>
      TOL    C16 H14 F3 N1 O3 S1

>  <HET>
 TOL  A 320      24

>  <HETNAM>
     TOL TOLRESTAT

>  <Name>
TOL.pdb

>  <RI>
0

>  <Rbt.Current_Directory>
/home/malgorzata/Desktop/rDOCK_IFD/Wyniki/1_aldose_rductase/IFD

>  <Rbt.Executable>
rbdock ($Id: //depot/dev/client3/rdock/2013.1/src/exe/rbdock.cxx#4 $)

>  <Rbt.Library>
libRbt.so (2013.1, Build901 2013/11/27)

>  <Rbt.Parameter_File>
/home/malgorzata/Desktop/rDock_2013.1_src/data/scripts/hard_docking.prm

>  <Rbt.Receptor>
cavity.prm

>  <SCORE>
-10.4013

>  <SCORE.INTER>
0.877917

>  <SCORE.INTER.CONST>
1

>  <SCORE.INTER.POLAR>
0

>  <SCORE.INTER.REPUL>
0

>  <SCORE.INTER.ROT>
5

>  <SCORE.INTER.VDW>
-9.52208

>  <SCORE.INTER.norm>
0.0365799

>  <SCORE.INTRA>
-5.23123

>  <SCORE.INTRA.DIHEDRAL>
0.927922

>  <SCORE.INTRA.DIHEDRAL.0>
16.9783

>  <SCORE.INTRA.POLAR>
0

>  <SCORE.INTRA.POLAR.0>
0

>  <SCORE.INTRA.REPUL>
0

>  <SCORE.INTRA.REPUL.0>
0

>  <SCORE.INTRA.VDW>
-5.69519

>  <SCORE.INTRA.VDW.0>
4.87734

>  <SCORE.INTRA.norm>
-0.217968

>  <SCORE.RESTR>
0.790275

>  <SCORE.RESTR.CAVITY>
0.790275

>  <SCORE.RESTR.norm>
0.0329281

>  <SCORE.SYSTEM>
-6.83827

>  <SCORE.SYSTEM.CONST>
0

>  <SCORE.SYSTEM.DIHEDRAL>
3.47376

>  <SCORE.SYSTEM.POLAR>
-1.84743

>  <SCORE.SYSTEM.REPUL>
0.137757

>  <SCORE.SYSTEM.VDW>
-2.98268

>  <SCORE.SYSTEM.norm>
-0.284928

>  <SCORE.heavy>
24

>  <SCORE.norm>
-0.433388

$$$$
TOL.pdb
  rDOCK(R)          3D
libRbt.so/2013.1/901 2013/11/27
 25 26  0  0  0  0  0  0  0  0999 V2000
   28.5635   22.7637   75.3445 C   0  0  0  0  0  0
   29.1201   21.6923   74.7255 F   0  0  0  0  0  0
   28.6219   23.8009   74.4676 F   0  0  0  0  0  0
   27.2490   22.4903   75.5590 F   0  0  0  0  0  0
   29.2790   23.0870   76.6740 C   0  0  0  0  0  0
   30.3043   22.2823   77.2356 C   0  0  0  0  0  0
   30.6924   21.1863   76.6091 O   0  0  0  0  0  0
   30.0545   20.0166   77.0945 C   0  0  0  0  0  0
   30.8923   22.6660   78.4608 C   0  0  0  0  0  0
   30.4763   23.8266   79.1229 C   0  0  0  0  0  0
   29.4570   24.6267   78.5698 C   0  0  0  0  0  0
   29.0446   25.7966   79.2496 C   0  0  0  0  0  0
   28.0292   26.5944   78.6970 C   0  0  0  0  0  0
   27.4288   26.2375   77.4875 C   0  0  0  0  0  0
   27.8411   25.0786   76.8178 C   0  0  0  0  0  0
   28.8567   24.2624   77.3497 C   0  0  0  0  0  0
   29.6383   26.2575   80.5599 C   0  0  0  0  0  0
   28.7315   26.0846   82.0035 S   0  0  0  0  0  0
   30.8657   26.7795   80.5792 N   0  0  0  0  0  0
   31.6572   26.8169   79.3544 C   0  0  0  0  0  0
   31.4555   27.3037   81.8069 C   0  0  0  0  0  0
   31.8099   28.7947   81.6735 C   0  0  0  0  0  0
   31.0118   29.6134   81.2998 O   0  0  0  0  0  0
   33.0638   29.1183   82.0087 O   0  0  0  0  0  0
   33.3509   30.0080   81.9453 H   0  0  0  0  0  0
  1  2  1  0  0  0
  1  3  1  0  0  0
  1  4  1  0  0  0
  1  5  1  0  0  0
  5  6  2  0  0  0
  5 16  1  0  0  0
  6  7  1  0  0  0
  6  9  1  0  0  0
  7  8  1  0  0  0
  9 10  2  0  0  0
 10 11  1  0  0  0
 11 12  2  0  0  0
 11 16  1  0  0  0
 12 13  1  0  0  0
 12 17  1  0  0  0
 13 14  2  0  0  0
 14 15  1  0  0  0
 15 16  2  0  0  0
 17 18  2  0  0  0
 17 19  1  0  0  0
 19 20  1  0  0  0
 19 21  1  0  0  0
 21 22  1  0  0  0
 22 23  2  0  0  0
 22 24  1  0  0  0
 24 25  1  0  0  0
M  END
>  <CHROM.0>
43.45005676,3.51809107,-159.94192176,140.79912605,-69.35876459,-61.13991987
-92.19054851,178.15073909,179.96093218,-61.54190337,-70.75514128,-61.41326028
-60.50081437,-99.71291869

>  <CHROM.1>
-5.70222196,-96.10633129,-106.26145517,-120.08955440,52.22350345,179.51733046
29.70924119,24.89225894,78.52367097,1.87446831,0.61479620,-2.54343720

>  <FORMUL>
      TOL    C16 H14 F3 N1 O3 S1

>  <HET>
 TOL  A 320      24

>  <HETNAM>
     TOL TOLRESTAT

>  <Name>
TOL.pdb

>  <RI>
0

>  <Rbt.Current_Directory>
/home/malgorzata/Desktop/rDOCK_IFD/Wyniki/1_aldose_rductase/IFD

>  <Rbt.Executable>
rbdock ($Id: //depot/dev/client3/rdock/2013.1/src/exe/rbdock.cxx#4 $)

>  <Rbt.Library>
libRbt.so (2013.1, Build901 2013/11/27)

>  <Rbt.Parameter_File>
/home/malgorzata/Desktop/rDock_2013.1_src/data/scripts/hard_docking.prm

>  <Rbt.Receptor>
cavity.prm

>  <SCORE>
-22.6632

>  <SCORE.INTER>
-7.14654

>  <SCORE.INTER.CONST>
1

>  <SCORE.INTER.POLAR>
0

>  <SCORE.INTER.REPUL>
0

>  <SCORE.INTER.ROT>
5

>  <SCORE.INTER.VDW>
-17.5465

>  <SCORE.INTER.norm>
-0.297773

>  <SCORE.INTRA>
-4.70451

>  <SCORE.INTRA.DIHEDRAL>
3.97996

>  <SCORE.INTRA.DIHEDRAL.0>
16.9783

>  <SCORE.INTRA.POLAR>
0

>  <SCORE.INTRA.POLAR.0>
0

>  <SCORE.INTRA.REPUL>
0

>  <SCORE.INTRA.REPUL.0>
0

>  <SCORE.INTRA.VDW>
-6.69449

>  <SCORE.INTRA.VDW.0>
4.87734

>  <SCORE.INTRA.norm>
-0.196021

>  <SCORE.RESTR>
0

>  <SCORE.RESTR.CAVITY>
0

>  <SCORE.RESTR.norm>
0

>  <SCORE.SYSTEM>
-10.8122

>  <SCORE.SYSTEM.CONST>
0

>  <SCORE.SYSTEM.DIHEDRAL>
4.13618

>  <SCORE.SYSTEM.POLAR>
-2.56648

>  <SCORE.SYSTEM.REPUL>
0.0018593

>  <SCORE.SYSTEM.VDW>
-4.1635

>  <SCORE.SYSTEM.norm>
-0.450507

>  <SCORE.heavy>
24

>  <SCORE.norm>
-0.9443

$$$$
TOL.pdb
  rDOCK(R)          3D
libRbt.so/2013.1/901 2013/11/27
 25 26  0  0  0  0  0  0  0  0999 V2000
   22.5703   29.1977   71.5607 C   0  0  0  0  0  0
   23.2717   28.4689   70.6565 F   0  0  0  0  0  0
   22.2935   30.3930   70.9753 F   0  0  0  0  0  0
   21.3836   28.5704   71.7779 F   0  0  0  0  0  0
   23.3501   29.3658   72.8828 C   0  0  0  0  0  0
   23.5169   30.6076   73.5494 C   0  0  0  0  0  0
   22.9863   31.7022   73.0351 O   0  0  0  0  0  0
   21.8974   32.1989   73.7956 C   0  0  0  0  0  0
   24.2529   30.6531   74.7537 C   0  0  0  0  0  0
   24.8158   29.4913   75.2939 C   0  0  0  0  0  0
   24.6544   28.2572   74.6338 C   0  0  0  0  0  0
   25.2296   27.0904   75.1894 C   0  0  0  0  0  0
   25.0673   25.8602   74.5314 C   0  0  0  0  0  0
   24.3460   25.7865   73.3376 C   0  0  0  0  0  0
   23.7778   26.9443   72.7918 C   0  0  0  0  0  0
   23.9252   28.1891   73.4316 C   0  0  0  0  0  0
   26.0236   27.0780   76.4744 C   0  0  0  0  0  0
   27.2289   28.2684   76.7321 S   0  0  0  0  0  0
   25.7671   26.1504   77.3980 N   0  0  0  0  0  0
   24.6648   25.2156   77.2004 C   0  0  0  0  0  0
   26.5530   26.0528   78.6239 C   0  0  0  0  0  0
   26.0176   26.9941   79.7164 C   0  0  0  0  0  0
   26.6803   27.8865   80.1763 O   0  0  0  0  0  0
   24.7627   26.7563   80.1139 O   0  0  0  0  0  0
   24.2951   26.0194   79.7731 H   0  0  0  0  0  0
  1  2  1  0  0  0
  1  3  1  0  0  0
  1  4  1  0  0  0
  1  5  1  0  0  0
  5  6  2  0  0  0
  5 16  1  0  0  0
  6  7  1  0  0  0
  6  9  1  0  0  0
  7  8  1  0  0  0
  9 10  2  0  0  0
 10 11  1  0  0  0
 11 12  2  0  0  0
 11 16  1  0  0  0
 12 13  1  0  0  0
 12 17  1  0  0  0
 13 14  2  0  0  0
 14 15  1  0  0  0
 15 16  2  0  0  0
 17 18  2  0  0  0
 17 19  1  0  0  0
 19 20  1  0  0  0
 19 21  1  0  0  0
 21 22  1  0  0  0
 22 23  2  0  0  0
 22 24  1  0  0  0
 24 25  1  0  0  0
M  END
>  <CHROM.0>
45.11235659,7.31661979,3.70563442,140.99707451,64.78887182,-61.13991987,-100.22403880
62.23119624,64.60263935,-61.54190337,-70.48521671,-61.41326028,-60.50081437
-105.82796337

>  <CHROM.1>
132.05468027,110.10546529,-46.26395894,85.65452412,-118.20755588,4.22383982
24.43256861,28.26390627,74.96113361,-3.13011888,-1.12097388,0.43319336

>  <FORMUL>
      TOL    C16 H14 F3 N1 O3 S1

>  <HET>
 TOL  A 320      24

>  <HETNAM>
     TOL TOLRESTAT

>  <Name>
TOL.pdb

>  <RI>
0

>  <Rbt.Current_Directory>
/home/malgorzata/Desktop/rDOCK_IFD/Wyniki/1_aldose_rductase/IFD

>  <Rbt.Executable>
rbdock ($Id: //depot/dev/client3/rdock/2013.1/src/exe/rbdock.cxx#4 $)

>  <Rbt.Library>
libRbt.so (2013.1, Build901 2013/11/27)

>  <Rbt.Parameter_File>
/home/malgorzata/Desktop/rDock_2013.1_src/data/scripts/hard_docking.prm

>  <Rbt.Receptor>
cavity.prm

>  <SCORE>
-22.6489

>  <SCORE.INTER>
-10.5139

>  <SCORE.INTER.CONST>
1

>  <SCORE.INTER.POLAR>
-0.48794

>  <SCORE.INTER.REPUL>
0

>  <SCORE.INTER.ROT>
5

>  <SCORE.INTER.VDW>
-19.2549

>  <SCORE.INTER.norm>
-0.438079

>  <SCORE.INTRA>
-3.44558

>  <SCORE.INTRA.DIHEDRAL>
-1.36622

>  <SCORE.INTRA.DIHEDRAL.0>
16.9783

>  <SCORE.INTRA.POLAR>
0

>  <SCORE.INTRA.POLAR.0>
0

>  <SCORE.INTRA.REPUL>
0

>  <SCORE.INTRA.REPUL.0>
0

>  <SCORE.INTRA.VDW>
-2.76247

>  <SCORE.INTRA.VDW.0>
4.87734

>  <SCORE.INTRA.norm>
-0.143566

>  <SCORE.RESTR>
0

>  <SCORE.RESTR.CAVITY>
0

>  <SCORE.RESTR.norm>
0

>  <SCORE.SYSTEM>
-8.68938

>  <SCORE.SYSTEM.CONST>
0

>  <SCORE.SYSTEM.DIHEDRAL>
3.20317

>  <SCORE.SYSTEM.POLAR>
-1.80874

>  <SCORE.SYSTEM.REPUL>
0.00154873

>  <SCORE.SYSTEM.VDW>
-4.149

>  <SCORE.SYSTEM.norm>
-0.362058

>  <SCORE.heavy>
24

>  <SCORE.norm>
-0.943703

$$$$
TOL.pdb
  rDOCK(R)          3D
libRbt.so/2013.1/901 2013/11/27
 25 26  0  0  0  0  0  0  0  0999 V2000
   28.8590   23.1529   75.6369 C   0  0  0  0  0  0
   27.5184   22.9654   75.7277 F   0  0  0  0  0  0
   29.3708   22.0539   75.0218 F   0  0  0  0  0  0
   29.0815   24.2145   74.8170 F   0  0  0  0  0  0
   29.4948   23.3904   77.0239 C   0  0  0  0  0  0
   30.5306   22.5862   77.5666 C   0  0  0  0  0  0
   31.0006   21.5674   76.8698 O   0  0  0  0  0  0
   30.4693   20.3204   77.2866 C   0  0  0  0  0  0
   31.0410   22.8872   78.8484 C   0  0  0  0  0  0
   30.5384   23.9660   79.5846 C   0  0  0  0  0  0
   29.5084   24.7652   79.0503 C   0  0  0  0  0  0
   29.0081   25.8518   79.8051 C   0  0  0  0  0  0
   27.9821   26.6488   79.2714 C   0  0  0  0  0  0
   27.4572   26.3725   78.0069 C   0  0  0  0  0  0
   27.9565   25.2959   77.2630 C   0  0  0  0  0  0
   28.9845   24.4824   77.7746 C   0  0  0  0  0  0
   29.5165   26.2226   81.1784 C   0  0  0  0  0  0
   28.9085   25.3997   82.5530 S   0  0  0  0  0  0
   30.4422   27.1749   81.3028 N   0  0  0  0  0  0
   31.0204   27.7843   80.1103 C   0  0  0  0  0  0
   30.9137   27.6179   82.6110 C   0  0  0  0  0  0
   31.8849   26.6023   83.2369 C   0  0  0  0  0  0
   32.7552   26.0695   82.6000 O   0  0  0  0  0  0
   31.6993   26.3585   84.5390 O   0  0  0  0  0  0
   32.2582   25.7544   84.9869 H   0  0  0  0  0  0
  1  2  1  0  0  0
  1  3  1  0  0  0
  1  4  1  0  0  0
  1  5  1  0  0  0
  5  6  2  0  0  0
  5 16  1  0  0  0
  6  7  1  0  0  0
  6  9  1  0  0  0
  7  8  1  0  0  0
  9 10  2  0  0  0
 10 11  1  0  0  0
 11 12  2  0  0  0
 11 16  1  0  0  0
 12 13  1  0  0  0
 12 17  1  0  0  0
 13 14  2  0  0  0
 14 15  1  0  0  0
 15 16  2  0  0  0
 17 18  2  0  0  0
 17 19  1  0  0  0
 19 20  1  0  0  0
 19 21  1  0  0  0
 21 22  1  0  0  0
 22 23  2  0  0  0
 22 24  1  0  0  0
 24 25  1  0  0  0
M  END
>  <CHROM.0>
43.04567262,-0.05156884,0.87526533,142.01602023,-68.77381554,-61.13991987
-100.19102471,-178.75273698,62.60213596,-61.54190337,-172.00780312,-61.41326028
-60.50081437,130.83089017

>  <CHROM.1>
122.27296982,-100.38610136,-83.00975593,76.23164180,43.33244046,-179.61652826
29.79690149,24.70190250,79.14999471,1.86996250,0.78607198,-2.30673159

>  <FORMUL>
      TOL    C16 H14 F3 N1 O3 S1

>  <HET>
 TOL  A 320      24

>  <HETNAM>
     TOL TOLRESTAT

>  <Name>
TOL.pdb

>  <RI>
0

>  <Rbt.Current_Directory>
/home/malgorzata/Desktop/rDOCK_IFD/Wyniki/1_aldose_rductase/IFD

>  <Rbt.Executable>
rbdock ($Id: //depot/dev/client3/rdock/2013.1/src/exe/rbdock.cxx#4 $)

>  <Rbt.Library>
libRbt.so (2013.1, Build901 2013/11/27)

>  <Rbt.Parameter_File>
/home/malgorzata/Desktop/rDock_2013.1_src/data/scripts/hard_docking.prm

>  <Rbt.Receptor>
cavity.prm

>  <SCORE>
-24.0774

>  <SCORE.INTER>
-7.65862

>  <SCORE.INTER.CONST>
1

>  <SCORE.INTER.POLAR>
-0.781455

>  <SCORE.INTER.REPUL>
0

>  <SCORE.INTER.ROT>
5

>  <SCORE.INTER.VDW>
-15.4017

>  <SCORE.INTER.norm>
-0.319109

>  <SCORE.INTRA>
-5.32875

>  <SCORE.INTRA.DIHEDRAL>
4.78167

>  <SCORE.INTRA.DIHEDRAL.0>
16.9783

>  <SCORE.INTRA.POLAR>
0

>  <SCORE.INTRA.POLAR.0>
0

>  <SCORE.INTRA.REPUL>
0

>  <SCORE.INTRA.REPUL.0>
0

>  <SCORE.INTRA.VDW>
-7.71959

>  <SCORE.INTRA.VDW.0>
4.87734

>  <SCORE.INTRA.norm>
-0.222031

>  <SCORE.RESTR>
0

>  <SCORE.RESTR.CAVITY>
0

>  <SCORE.RESTR.norm>
0

>  <SCORE.SYSTEM>
-11.0901

>  <SCORE.SYSTEM.CONST>
0

>  <SCORE.SYSTEM.DIHEDRAL>
3.34949

>  <SCORE.SYSTEM.POLAR>
-2.56875

>  <SCORE.SYSTEM.REPUL>
0.00193452

>  <SCORE.SYSTEM.VDW>
-4.04073

>  <SCORE.SYSTEM.norm>
-0.462087

>  <SCORE.heavy>
24

>  <SCORE.norm>
-1.00323

$$$$
TOL.pdb
  rDOCK(R)          3D
libRbt.so/2013.1/901 2013/11/27
 25 26  0  0  0  0  0  0  0  0999 V2000
   27.9309   22.7006   75.4863 C   0  0  0  0  0  0
   28.1960   21.5476   74.8222 F   0  0  0  0  0  0
   27.7784   23.6714   74.5469 F   0  0  0  0  0  0
   26.7348   22.5581   76.1170 F   0  0  0  0  0  0
   29.0456   23.0427   76.4985 C   0  0  0  0  0  0
   30.1536   22.1982   76.7691 C   0  0  0  0  0  0
   30.2675   21.0454   76.1346 O   0  0  0  0  0  0
   29.9322   19.9320   76.9463 C   0  0  0  0  0  0
   31.1176   22.6039   77.7179 C   0  0  0  0  0  0
   30.9918   23.8250   78.3900 C   0  0  0  0  0  0
   29.8919   24.6649   78.1259 C   0  0  0  0  0  0
   29.7756   25.8958   78.8131 C   0  0  0  0  0  0
   28.6795   26.7332   78.5484 C   0  0  0  0  0  0
   27.7101   26.3559   77.6164 C   0  0  0  0  0  0
   27.8301   25.1365   76.9381 C   0  0  0  0  0  0
   28.9189   24.2796   77.1844 C   0  0  0  0  0  0
   30.7758   26.3827   79.8350 C   0  0  0  0  0  0
   31.9960   27.4880   79.3603 S   0  0  0  0  0  0
   30.6881   25.9578   81.0965 N   0  0  0  0  0  0
   29.5772   25.1019   81.4978 C   0  0  0  0  0  0
   31.6711   26.3430   82.1041 C   0  0  0  0  0  0
   31.2198   27.5863   82.8896 C   0  0  0  0  0  0
   30.9882   28.6368   82.3512 O   0  0  0  0  0  0
   31.0957   27.4163   84.2106 O   0  0  0  0  0  0
   31.3044   26.5891   84.5981 H   0  0  0  0  0  0
  1  2  1  0  0  0
  1  3  1  0  0  0
  1  4  1  0  0  0
  1  5  1  0  0  0
  5  6  2  0  0  0
  5 16  1  0  0  0
  6  7  1  0  0  0
  6  9  1  0  0  0
  7  8  1  0  0  0
  9 10  2  0  0  0
 10 11  1  0  0  0
 11 12  2  0  0  0
 11 16  1  0  0  0
 12 13  1  0  0  0
 12 17  1  0  0  0
 13 14  2  0  0  0
 14 15  1  0  0  0
 15 16  2  0  0  0
 17 18  2  0  0  0
 17 19  1  0  0  0
 19 20  1  0  0  0
 19 21  1  0  0  0
 21 22  1  0  0  0
 22 23  2  0  0  0
 22 24  1  0  0  0
 24 25  1  0  0  0
M  END
>  <CHROM.0>
43.60362520,1.27604420,-161.49920444,143.79533909,-69.47619848,-61.13991987
133.50254590,-179.48117750,64.08178042,-61.54190337,-172.63255791,-61.41326028
-60.50081437,-151.05105603

>  <CHROM.1>
-4.56007904,-104.37815557,97.56429710,93.73691356,-59.01732807,1.80672106
29.76173059,24.69718086,78.48779203,2.03586429,0.81627434,-2.61329864

>  <FORMUL>
      TOL    C16 H14 F3 N1 O3 S1

>  <HET>
 TOL  A 320      24

>  <HETNAM>
     TOL TOLRESTAT

>  <Name>
TOL.pdb

>  <RI>
0

>  <Rbt.Current_Directory>
/home/malgorzata/Desktop/rDOCK_IFD/Wyniki/1_aldose_rductase/IFD

>  <Rbt.Executable>
rbdock ($Id: //depot/dev/client3/rdock/2013.1/src/exe/rbdock.cxx#4 $)

>  <Rbt.Library>
libRbt.so (2013.1, Build901 2013/11/27)

>  <Rbt.Parameter_File>
/home/malgorzata/Desktop/rDock_2013.1_src/data/scripts/hard_docking.prm

>  <Rbt.Receptor>
cavity.prm

>  <SCORE>
-21.0525

>  <SCORE.INTER>
-5.2649

>  <SCORE.INTER.CONST>
1

>  <SCORE.INTER.POLAR>
-0.632456

>  <SCORE.INTER.REPUL>
0

>  <SCORE.INTER.ROT>
5

>  <SCORE.INTER.VDW>
-13.5146

>  <SCORE.INTER.norm>
-0.219371

>  <SCORE.INTRA>
-4.96442

>  <SCORE.INTRA.DIHEDRAL>
4.64835

>  <SCORE.INTRA.DIHEDRAL.0>
16.9783

>  <SCORE.INTRA.POLAR>
0

>  <SCORE.INTRA.POLAR.0>
0

>  <SCORE.INTRA.REPUL>
0

>  <SCORE.INTRA.REPUL.0>
0

>  <SCORE.INTRA.VDW>
-7.2886

>  <SCORE.INTRA.VDW.0>
4.87734

>  <SCORE.INTRA.norm>
-0.206851

>  <SCORE.RESTR>
0

>  <SCORE.RESTR.CAVITY>
0

>  <SCORE.RESTR.norm>
0

>  <SCORE.SYSTEM>
-10.8232

>  <SCORE.SYSTEM.CONST>
0

>  <SCORE.SYSTEM.DIHEDRAL>
3.81399

>  <SCORE.SYSTEM.POLAR>
-2.56647

>  <SCORE.SYSTEM.REPUL>
0.0018307

>  <SCORE.SYSTEM.VDW>
-4.01335

>  <SCORE.SYSTEM.norm>
-0.450967

>  <SCORE.heavy>
24

>  <SCORE.norm>
-0.877189

$$$$
TOL.pdb
  rDOCK(R)          3D
libRbt.so/2013.1/901 2013/11/27
 25 26  0  0  0  0  0  0  0  0999 V2000
   21.2512   27.4793   69.9151 C   0  0  0  0  0  0
   21.1008   26.3466   70.6466 F   0  0  0  0  0  0
   22.1369   27.1947   68.9238 F   0  0  0  0  0  0
   20.0597   27.7599   69.3232 F   0  0  0  0  0  0
   21.7196   28.6626   70.7895 C   0  0  0  0  0  0
   20.9047   29.7792   71.1106 C   0  0  0  0  0  0
   19.6682   29.8401   70.6503 O   0  0  0  0  0  0
   18.7088   29.3593   71.5773 C   0  0  0  0  0  0
   21.4319   30.8119   71.9166 C   0  0  0  0  0  0
   22.7435   30.7448   72.4001 C   0  0  0  0  0  0
   23.5564   29.6391   72.0815 C   0  0  0  0  0  0
   24.8809   29.5839   72.5752 C   0  0  0  0  0  0
   25.6904   28.4808   72.2582 C   0  0  0  0  0  0
   25.1953   27.4461   71.4611 C   0  0  0  0  0  0
   23.8830   27.5050   70.9753 C   0  0  0  0  0  0
   23.0513   28.5987   71.2788 C   0  0  0  0  0  0
   25.4970   30.6562   73.4427 C   0  0  0  0  0  0
   26.6717   31.7096   72.7744 S   0  0  0  0  0  0
   25.1088   30.7791   74.7129 N   0  0  0  0  0  0
   24.0313   29.9404   75.2263 C   0  0  0  0  0  0
   25.7236   31.7518   75.6106 C   0  0  0  0  0  0
   25.2824   33.1875   75.2781 C   0  0  0  0  0  0
   26.0157   33.9769   74.7432 O   0  0  0  0  0  0
   24.0256   33.4945   75.6180 O   0  0  0  0  0  0
   23.6939   34.3559   75.4571 H   0  0  0  0  0  0
  1  2  1  0  0  0
  1  3  1  0  0  0
  1  4  1  0  0  0
  1  5  1  0  0  0
  5  6  2  0  0  0
  5 16  1  0  0  0
  6  7  1  0  0  0
  6  9  1  0  0  0
  7  8  1  0  0  0
  9 10  2  0  0  0
 10 11  1  0  0  0
 11 12  2  0  0  0
 11 16  1  0  0  0
 12 13  1  0  0  0
 12 17  1  0  0  0
 13 14  2  0  0  0
 14 15  1  0  0  0
 15 16  2  0  0  0
 17 18  2  0  0  0
 17 19  1  0  0  0
 19 20  1  0  0  0
 19 21  1  0  0  0
 21 22  1  0  0  0
 22 23  2  0  0  0
 22 24  1  0  0  0
 24 25  1  0  0  0
M  END
>  <CHROM.0>
43.53837380,3.72291240,-167.06266106,140.55746689,-69.37158568,-61.13991987
-101.30469267,-179.75964214,-54.41356015,-61.54190337,-172.02700873,-61.41326028
-60.50081437,127.69010842

>  <CHROM.1>
-110.17059950,95.49286107,-106.76001500,73.14446781,-106.56315866,179.05417019
23.32811027,29.83670041,72.27167149,-2.23228252,-0.17867437,0.65247850

>  <FORMUL>
      TOL    C16 H14 F3 N1 O3 S1

>  <HET>
 TOL  A 320      24

>  <HETNAM>
     TOL TOLRESTAT

>  <Name>
TOL.pdb

>  <RI>
0

>  <Rbt.Current_Directory>
/home/malgorzata/Desktop/rDOCK_IFD/Wyniki/1_aldose_rductase/IFD

>  <Rbt.Executable>
rbdock ($Id: //depot/dev/client3/rdock/2013.1/src/exe/rbdock.cxx#4 $)

>  <Rbt.Library>
libRbt.so (2013.1, Build901 2013/11/27)

>  <Rbt.Parameter_File>
/home/malgorzata/Desktop/rDock_2013.1_src/data/scripts/hard_docking.prm

>  <Rbt.Receptor>
cavity.prm

>  <SCORE>
-30.199

>  <SCORE.INTER>
-16.0039

>  <SCORE.INTER.CONST>
1

>  <SCORE.INTER.POLAR>
0

>  <SCORE.INTER.REPUL>
0

>  <SCORE.INTER.ROT>
5

>  <SCORE.INTER.VDW>
-26.4039

>  <SCORE.INTER.norm>
-0.666831

>  <SCORE.INTRA>
-5.22338

>  <SCORE.INTRA.DIHEDRAL>
3.96811

>  <SCORE.INTRA.DIHEDRAL.0>
16.9783

>  <SCORE.INTRA.POLAR>
0

>  <SCORE.INTRA.POLAR.0>
0

>  <SCORE.INTRA.REPUL>
0

>  <SCORE.INTRA.REPUL.0>
0

>  <SCORE.INTRA.VDW>
-7.20744

>  <SCORE.INTRA.VDW.0>
4.87734

>  <SCORE.INTRA.norm>
-0.217641

>  <SCORE.RESTR>
0.150374

>  <SCORE.RESTR.CAVITY>
0.150374

>  <SCORE.RESTR.norm>
0.00626558

>  <SCORE.SYSTEM>
-9.12209

>  <SCORE.SYSTEM.CONST>
0

>  <SCORE.SYSTEM.DIHEDRAL>
3.69792

>  <SCORE.SYSTEM.POLAR>
-2.5636

>  <SCORE.SYSTEM.REPUL>
0.137844

>  <SCORE.SYSTEM.VDW>
-2.94402

>  <SCORE.SYSTEM.norm>
-0.380087

>  <SCORE.heavy>
24

>  <SCORE.norm>
-1.25829

$$$$
TOL.pdb
  rDOCK(R)          3D
libRbt.so/2013.1/901 2013/11/27
 25 26  0  0  0  0  0  0  0  0999 V2000
   27.0948   19.4896   75.4114 C   0  0  0  0  0  0
   27.2820   19.1606   74.1085 F   0  0  0  0  0  0
   26.1221   20.4388   75.4433 F   0  0  0  0  0  0
   26.6116   18.3950   76.0571 F   0  0  0  0  0  0
   28.4042   19.9783   76.0679 C   0  0  0  0  0  0
   29.1142   19.2466   77.0551 C   0  0  0  0  0  0
   28.6548   18.0756   77.4575 O   0  0  0  0  0  0
   29.3191   16.9816   76.8470 C   0  0  0  0  0  0
   30.3022   19.7860   77.5952 C   0  0  0  0  0  0
   30.7842   21.0284   77.1680 C   0  0  0  0  0  0
   30.0808   21.7589   76.1900 C   0  0  0  0  0  0
   30.5777   23.0142   75.7678 C   0  0  0  0  0  0
   29.8766   23.7413   74.7918 C   0  0  0  0  0  0
   28.6977   23.2327   74.2421 C   0  0  0  0  0  0
   28.2101   21.9891   74.6628 C   0  0  0  0  0  0
   28.8938   21.2403   75.6386 C   0  0  0  0  0  0
   31.8427   23.6390   76.3073 C   0  0  0  0  0  0
   33.1828   23.8653   75.2637 S   0  0  0  0  0  0
   31.8960   24.0199   77.5846 N   0  0  0  0  0  0
   30.7069   23.9146   78.4230 C   0  0  0  0  0  0
   33.1170   24.5630   78.1712 C   0  0  0  0  0  0
   33.2286   26.0803   77.9435 C   0  0  0  0  0  0
   34.0450   26.5599   77.2016 O   0  0  0  0  0  0
   32.3508   26.8281   78.6215 O   0  0  0  0  0  0
   31.7424   26.4214   79.2066 H   0  0  0  0  0  0
  1  2  1  0  0  0
  1  3  1  0  0  0
  1  4  1  0  0  0
  1  5  1  0  0  0
  5  6  2  0  0  0
  5 16  1  0  0  0
  6  7  1  0  0  0
  6  9  1  0  0  0
  7  8  1  0  0  0
  9 10  2  0  0  0
 10 11  1  0  0  0
 11 12  2  0  0  0
 11 16  1  0  0  0
 12 13  1  0  0  0
 12 17  1  0  0  0
 13 14  2  0  0  0
 14 15  1  0  0  0
 15 16  2  0  0  0
 17 18  2  0  0  0
 17 19  1  0  0  0
 19 20  1  0  0  0
 19 21  1  0  0  0
 21 22  1  0  0  0
 22 23  2  0  0  0
 22 24  1  0  0  0
 24 25  1  0  0  0
M  END
>  <CHROM.0>
43.71874481,8.86299667,-158.64961226,143.08298009,-68.81805308,-61.13991987
-80.35825335,179.82834066,178.98429344,-61.54190337,-67.03681318,-61.41326028
-60.50081437,115.50834964

>  <CHROM.1>
-110.38638799,100.04883564,114.53494915,86.35421857,-110.21838110,1.82515654
30.08032941,21.98773387,76.36115986,2.53503814,0.70329640,2.60981171

>  <FORMUL>
      TOL    C16 H14 F3 N1 O3 S1

>  <HET>
 TOL  A 320      24

>  <HETNAM>
     TOL TOLRESTAT

>  <Name>
TOL.pdb

>  <RI>
0

>  <Rbt.Current_Directory>
/home/malgorzata/Desktop/rDOCK_IFD/Wyniki/1_aldose_rductase/IFD

>  <Rbt.Executable>
rbdock ($Id: //depot/dev/client3/rdock/2013.1/src/exe/rbdock.cxx#4 $)

>  <Rbt.Library>
libRbt.so (2013.1, Build901 2013/11/27)

>  <Rbt.Parameter_File>
/home/malgorzata/Desktop/rDock_2013.1_src/data/scripts/hard_docking.prm

>  <Rbt.Receptor>
cavity.prm

>  <SCORE>
-16.0808

>  <SCORE.INTER>
-0.531193

>  <SCORE.INTER.CONST>
1

>  <SCORE.INTER.POLAR>
0

>  <SCORE.INTER.REPUL>
0.0925271

>  <SCORE.INTER.ROT>
5

>  <SCORE.INTER.VDW>
-11.3938

>  <SCORE.INTER.norm>
-0.022133

>  <SCORE.INTRA>
-5.14531

>  <SCORE.INTRA.DIHEDRAL>
2.84694

>  <SCORE.INTRA.DIHEDRAL.0>
16.9783

>  <SCORE.INTRA.POLAR>
0

>  <SCORE.INTRA.POLAR.0>
0

>  <SCORE.INTRA.REPUL>
0

>  <SCORE.INTRA.REPUL.0>
0

>  <SCORE.INTRA.VDW>
-6.56878

>  <SCORE.INTRA.VDW.0>
4.87734

>  <SCORE.INTRA.norm>
-0.214388

>  <SCORE.RESTR>
0.321497

>  <SCORE.RESTR.CAVITY>
0.321497

>  <SCORE.RESTR.norm>
0.0133957

>  <SCORE.SYSTEM>
-10.7258

>  <SCORE.SYSTEM.CONST>
0

>  <SCORE.SYSTEM.DIHEDRAL>
3.89984

>  <SCORE.SYSTEM.POLAR>
-2.55633

>  <SCORE.SYSTEM.REPUL>
0.00180924

>  <SCORE.SYSTEM.VDW>
-3.99324

>  <SCORE.SYSTEM.norm>
-0.446908

>  <SCORE.heavy>
24

>  <SCORE.norm>
-0.670033

$$$$
TOL.pdb
  rDOCK(R)          3D
libRbt.so/2013.1/901 2013/11/27
 25 26  0  0  0  0  0  0  0  0999 V2000
   27.7711   23.1327   75.5121 C   0  0  0  0  0  0
   28.1815   23.5186   76.7464 F   0  0  0  0  0  0
   26.7908   23.9953   75.1341 F   0  0  0  0  0  0
   28.8101   23.3003   74.6512 F   0  0  0  0  0  0
   27.2875   21.6663   75.5067 C   0  0  0  0  0  0
   28.0078   20.5988   74.9104 C   0  0  0  0  0  0
   29.1630   20.8403   74.3174 O   0  0  0  0  0  0
   30.2796   20.5202   75.1308 C   0  0  0  0  0  0
   27.4743   19.2922   74.9578 C   0  0  0  0  0  0
   26.2486   19.0410   75.5848 C   0  0  0  0  0  0
   25.5294   20.0985   76.1758 C   0  0  0  0  0  0
   24.2909   19.8317   76.8051 C   0  0  0  0  0  0
   23.5751   20.8862   77.3952 C   0  0  0  0  0  0
   24.0782   22.1887   77.3611 C   0  0  0  0  0  0
   25.3052   22.4478   76.7374 C   0  0  0  0  0  0
   26.0424   21.4089   76.1394 C   0  0  0  0  0  0
   23.6731   18.4558   76.8890 C   0  0  0  0  0  0
   22.6994   17.8888   75.5981 S   0  0  0  0  0  0
   23.9048   17.6941   77.9593 N   0  0  0  0  0  0
   24.8229   18.1572   78.9940 C   0  0  0  0  0  0
   23.2749   16.3874   78.1199 C   0  0  0  0  0  0
   23.7071   15.4103   77.0132 C   0  0  0  0  0  0
   24.8540   15.2974   76.6684 O   0  0  0  0  0  0
   22.7211   14.6904   76.4665 O   0  0  0  0  0  0
   22.9127   14.0713   75.7898 H   0  0  0  0  0  0
  1  2  1  0  0  0
  1  3  1  0  0  0
  1  4  1  0  0  0
  1  5  1  0  0  0
  5  6  2  0  0  0
  5 16  1  0  0  0
  6  7  1  0  0  0
  6  9  1  0  0  0
  7  8  1  0  0  0
  9 10  2  0  0  0
 10 11  1  0  0  0
 11 12  2  0  0  0
 11 16  1  0  0  0
 12 13  1  0  0  0
 12 17  1  0  0  0
 13 14  2  0  0  0
 14 15  1  0  0  0
 15 16  2  0  0  0
 17 18  2  0  0  0
 17 19  1  0  0  0
 19 20  1  0  0  0
 19 21  1  0  0  0
 21 22  1  0  0  0
 22 23  2  0  0  0
 22 24  1  0  0  0
 24 25  1  0  0  0
M  END
>  <CHROM.0>
43.67023220,1.50282019,-156.98890591,142.62695564,-71.37625671,-61.13991987
114.04560042,175.52789188,-177.97913843,-61.54190337,-172.15880612,-61.41326028
-60.50081437,-99.18135553

>  <CHROM.1>
-107.93282196,99.74370447,-86.19167192,63.03548842,45.04252671,-179.63040094
25.70977999,19.83103055,76.21635232,0.85788951,0.41994749,0.08330848

>  <FORMUL>
      TOL    C16 H14 F3 N1 O3 S1

>  <HET>
 TOL  A 320      24

>  <HETNAM>
     TOL TOLRESTAT

>  <Name>
TOL.pdb

>  <RI>
0

>  <Rbt.Current_Directory>
/home/malgorzata/Desktop/rDOCK_IFD/Wyniki/1_aldose_rductase/IFD

>  <Rbt.Executable>
rbdock ($Id: //depot/dev/client3/rdock/2013.1/src/exe/rbdock.cxx#4 $)

>  <Rbt.Library>
libRbt.so (2013.1, Build901 2013/11/27)

>  <Rbt.Parameter_File>
/home/malgorzata/Desktop/rDock_2013.1_src/data/scripts/hard_docking.prm

>  <Rbt.Receptor>
cavity.prm

>  <SCORE>
-19.053

>  <SCORE.INTER>
-3.89961

>  <SCORE.INTER.CONST>
1

>  <SCORE.INTER.POLAR>
-0.565685

>  <SCORE.INTER.REPUL>
0

>  <SCORE.INTER.ROT>
5

>  <SCORE.INTER.VDW>
-12.3763

>  <SCORE.INTER.norm>
-0.162484

>  <SCORE.INTRA>
-4.9485

>  <SCORE.INTRA.DIHEDRAL>
4.89612

>  <SCORE.INTRA.DIHEDRAL.0>
16.9783

>  <SCORE.INTRA.POLAR>
0

>  <SCORE.INTRA.POLAR.0>
0

>  <SCORE.INTRA.REPUL>
0

>  <SCORE.INTRA.REPUL.0>
0

>  <SCORE.INTRA.VDW>
-7.39656

>  <SCORE.INTRA.VDW.0>
4.87734

>  <SCORE.INTRA.norm>
-0.206188

>  <SCORE.RESTR>
0.362372

>  <SCORE.RESTR.CAVITY>
0.362372

>  <SCORE.RESTR.norm>
0.0150988

>  <SCORE.SYSTEM>
-10.5673

>  <SCORE.SYSTEM.CONST>
0

>  <SCORE.SYSTEM.DIHEDRAL>
4.30279

>  <SCORE.SYSTEM.POLAR>
-2.58552

>  <SCORE.SYSTEM.REPUL>
0.00181829

>  <SCORE.SYSTEM.VDW>
-3.937

>  <SCORE.SYSTEM.norm>
-0.440303

>  <SCORE.heavy>
24

>  <SCORE.norm>
-0.793876

$$$$
TOL.pdb
  rDOCK(R)          3D
libRbt.so/2013.1/901 2013/11/27
 25 26  0  0  0  0  0  0  0  0999 V2000
   28.8082   23.1874   75.5976 C   0  0  0  0  0  0
   29.1782   24.1596   74.7266 F   0  0  0  0  0  0
   27.4493   23.1877   75.6360 F   0  0  0  0  0  0
   29.1971   21.9904   75.0831 F   0  0  0  0  0  0
   29.4282   23.4097   76.9942 C   0  0  0  0  0  0
   30.4125   22.5622   77.5659 C   0  0  0  0  0  0
   30.8451   21.5135   76.8895 O   0  0  0  0  0  0
   32.0977   21.7375   76.2636 C   0  0  0  0  0  0
   30.9125   22.8529   78.8542 C   0  0  0  0  0  0
   30.4495   23.9635   79.5687 C   0  0  0  0  0  0
   29.4705   24.8059   79.0055 C   0  0  0  0  0  0
   29.0098   25.9245   79.7386 C   0  0  0  0  0  0
   28.0348   26.7645   79.1762 C   0  0  0  0  0  0
   27.5213   26.4993   77.9046 C   0  0  0  0  0  0
   27.9811   25.3910   77.1824 C   0  0  0  0  0  0
   28.9579   24.5342   77.7229 C   0  0  0  0  0  0
   29.5094   26.2860   81.1176 C   0  0  0  0  0  0
   28.8831   25.4629   82.4838 S   0  0  0  0  0  0
   30.4417   27.2303   81.2536 N   0  0  0  0  0  0
   31.0350   27.8395   80.0684 C   0  0  0  0  0  0
   30.9055   27.6646   82.5674 C   0  0  0  0  0  0
   31.7416   26.5757   83.2614 C   0  0  0  0  0  0
   31.6853   26.3811   84.4471 O   0  0  0  0  0  0
   32.5294   25.8561   82.4546 O   0  0  0  0  0  0
   33.0431   25.1551   82.8047 H   0  0  0  0  0  0
  1  2  1  0  0  0
  1  3  1  0  0  0
  1  4  1  0  0  0
  1  5  1  0  0  0
  5  6  2  0  0  0
  5 16  1  0  0  0
  6  7  1  0  0  0
  6  9  1  0  0  0
  7  8  1  0  0  0
  9 10  2  0  0  0
 10 11  1  0  0  0
 11 12  2  0  0  0
 11 16  1  0  0  0
 12 13  1  0  0  0
 12 17  1  0  0  0
 13 14  2  0  0  0
 14 15  1  0  0  0
 15 16  2  0  0  0
 17 18  2  0  0  0
 17 19  1  0  0  0
 19 20  1  0  0  0
 19 21  1  0  0  0
 21 22  1  0  0  0
 22 23  2  0  0  0
 22 24  1  0  0  0
 24 25  1  0  0  0
M  END
>  <CHROM.0>
42.93813179,3.53312269,-158.76800205,142.80431341,-68.78171488,-61.13991987
-88.40299112,179.62408956,-179.32037186,-61.54190337,-70.12551353,-61.41326028
-60.50081437,138.77979507

>  <CHROM.1>
-112.25298447,100.62330711,-80.42845670,70.17908617,-142.98597817,-177.76933165
29.82231201,24.78515870,79.05348784,1.80833706,0.66044940,-2.21657627

>  <FORMUL>
      TOL    C16 H14 F3 N1 O3 S1

>  <HET>
 TOL  A 320      24

>  <HETNAM>
     TOL TOLRESTAT

>  <Name>
TOL.pdb

>  <RI>
0

>  <Rbt.Current_Directory>
/home/malgorzata/Desktop/rDOCK_IFD/Wyniki/1_aldose_rductase/IFD

>  <Rbt.Executable>
rbdock ($Id: //depot/dev/client3/rdock/2013.1/src/exe/rbdock.cxx#4 $)

>  <Rbt.Library>
libRbt.so (2013.1, Build901 2013/11/27)

>  <Rbt.Parameter_File>
/home/malgorzata/Desktop/rDock_2013.1_src/data/scripts/hard_docking.prm

>  <Rbt.Receptor>
cavity.prm

>  <SCORE>
-23.4314

>  <SCORE.INTER>
-7.35778

>  <SCORE.INTER.CONST>
1

>  <SCORE.INTER.POLAR>
-0.766155

>  <SCORE.INTER.REPUL>
0

>  <SCORE.INTER.ROT>
5

>  <SCORE.INTER.VDW>
-15.1529

>  <SCORE.INTER.norm>
-0.306574

>  <SCORE.INTRA>
-5.30615

>  <SCORE.INTRA.DIHEDRAL>
4.64985

>  <SCORE.INTRA.DIHEDRAL.0>
16.9783

>  <SCORE.INTRA.POLAR>
0

>  <SCORE.INTRA.POLAR.0>
0

>  <SCORE.INTRA.REPUL>
0

>  <SCORE.INTRA.REPUL.0>
0

>  <SCORE.INTRA.VDW>
-7.63108

>  <SCORE.INTRA.VDW.0>
4.87734

>  <SCORE.INTRA.norm>
-0.22109

>  <SCORE.RESTR>
0

>  <SCORE.RESTR.CAVITY>
0

>  <SCORE.RESTR.norm>
0

>  <SCORE.SYSTEM>
-10.7675

>  <SCORE.SYSTEM.CONST>
0

>  <SCORE.SYSTEM.DIHEDRAL>
4.14995

>  <SCORE.SYSTEM.POLAR>
-2.57128

>  <SCORE.SYSTEM.REPUL>
0.0019545

>  <SCORE.SYSTEM.VDW>
-4.10986

>  <SCORE.SYSTEM.norm>
-0.448645

>  <SCORE.heavy>
24

>  <SCORE.norm>
-0.976308

$$$$
TOL.pdb
  rDOCK(R)          3D
libRbt.so/2013.1/901 2013/11/27
 25 26  0  0  0  0  0  0  0  0999 V2000
   25.0369   24.6604   77.0390 C   0  0  0  0  0  0
   25.8058   25.0028   78.1031 F   0  0  0  0  0  0
   23.7517   24.6124   77.4796 F   0  0  0  0  0  0
   25.1126   25.6636   76.1243 F   0  0  0  0  0  0
   25.4884   23.3201   76.4195 C   0  0  0  0  0  0
   24.6452   22.1860   76.2890 C   0  0  0  0  0  0
   23.3957   22.2481   76.7122 O   0  0  0  0  0  0
   23.2036   21.6099   77.9639 C   0  0  0  0  0  0
   25.1588   21.0048   75.7100 C   0  0  0  0  0  0
   26.4842   20.9423   75.2653 C   0  0  0  0  0  0
   27.3250   22.0653   75.3954 C   0  0  0  0  0  0
   28.6632   21.9888   74.9432 C   0  0  0  0  0  0
   29.5005   23.1090   75.0721 C   0  0  0  0  0  0
   29.0194   24.2895   75.6429 C   0  0  0  0  0  0
   27.6936   24.3606   76.0884 C   0  0  0  0  0  0
   26.8339   23.2527   75.9703 C   0  0  0  0  0  0
   29.2657   20.7546   74.3143 C   0  0  0  0  0  0
   29.6897   20.7757   72.6542 S   0  0  0  0  0  0
   29.4736   19.6694   75.0616 N   0  0  0  0  0  0
   29.2036   19.7130   76.4944 C   0  0  0  0  0  0
   29.9870   18.4304   74.4861 C   0  0  0  0  0  0
   28.8485   17.5176   73.9992 C   0  0  0  0  0  0
   28.3823   17.6066   72.8939 O   0  0  0  0  0  0
   28.4184   16.6140   74.8868 O   0  0  0  0  0  0
   27.7193   16.0322   74.6618 H   0  0  0  0  0  0
  1  2  1  0  0  0
  1  3  1  0  0  0
  1  4  1  0  0  0
  1  5  1  0  0  0
  5  6  2  0  0  0
  5 16  1  0  0  0
  6  7  1  0  0  0
  6  9  1  0  0  0
  7  8  1  0  0  0
  9 10  2  0  0  0
 10 11  1  0  0  0
 11 12  2  0  0  0
 11 16  1  0  0  0
 12 13  1  0  0  0
 12 17  1  0  0  0
 13 14  2  0  0  0
 14 15  1  0  0  0
 15 16  2  0  0  0
 17 18  2  0  0  0
 17 19  1  0  0  0
 19 20  1  0  0  0
 19 21  1  0  0  0
 21 22  1  0  0  0
 22 23  2  0  0  0
 22 24  1  0  0  0
 24 25  1  0  0  0
M  END
>  <CHROM.0>
-61.98961618,-0.42368351,-0.56679634,143.18817063,179.76824396,-61.13991987
82.76760040,61.63295900,-174.25015020,-61.54190337,-67.63875396,-61.41326028
-60.50081437,123.65964974

>  <CHROM.1>
121.67527181,-101.96677164,111.90230157,-89.77574781,87.57155132,179.20267075
27.12569515,21.72222638,75.54038425,-2.27936113,-0.45226194,-2.97870383

>  <FORMUL>
      TOL    C16 H14 F3 N1 O3 S1

>  <HET>
 TOL  A 320      24

>  <HETNAM>
     TOL TOLRESTAT

>  <Name>
TOL.pdb

>  <RI>
0

>  <Rbt.Current_Directory>
/home/malgorzata/Desktop/rDOCK_IFD/Wyniki/1_aldose_rductase/IFD

>  <Rbt.Executable>
rbdock ($Id: //depot/dev/client3/rdock/2013.1/src/exe/rbdock.cxx#4 $)

>  <Rbt.Library>
libRbt.so (2013.1, Build901 2013/11/27)

>  <Rbt.Parameter_File>
/home/malgorzata/Desktop/rDock_2013.1_src/data/scripts/hard_docking.prm

>  <Rbt.Receptor>
cavity.prm

>  <SCORE>
-19.5766

>  <SCORE.INTER>
-7.59486

>  <SCORE.INTER.CONST>
1

>  <SCORE.INTER.POLAR>
-0.8

>  <SCORE.INTER.REPUL>
0

>  <SCORE.INTER.ROT>
5

>  <SCORE.INTER.VDW>
-15.2749

>  <SCORE.INTER.norm>
-0.316453

>  <SCORE.INTRA>
-5.80975

>  <SCORE.INTRA.DIHEDRAL>
3.09491

>  <SCORE.INTRA.DIHEDRAL.0>
16.9783

>  <SCORE.INTRA.POLAR>
0

>  <SCORE.INTRA.POLAR.0>
0

>  <SCORE.INTRA.REPUL>
0

>  <SCORE.INTRA.REPUL.0>
0

>  <SCORE.INTRA.VDW>
-7.3572

>  <SCORE.INTRA.VDW.0>
4.87734

>  <SCORE.INTRA.norm>
-0.242073

>  <SCORE.RESTR>
0.980445

>  <SCORE.RESTR.CAVITY>
0.980445

>  <SCORE.RESTR.norm>
0.0408519

>  <SCORE.SYSTEM>
-7.15245

>  <SCORE.SYSTEM.CONST>
0

>  <SCORE.SYSTEM.DIHEDRAL>
1.78362

>  <SCORE.SYSTEM.POLAR>
-1.26898

>  <SCORE.SYSTEM.REPUL>
0.00265073

>  <SCORE.SYSTEM.VDW>
-3.74298

>  <SCORE.SYSTEM.norm>
-0.298019

>  <SCORE.heavy>
24

>  <SCORE.norm>
-0.815692

$$$$
