REMARK  10 active torsions:
REMARK  status: ('A' for Active; 'I' for Inactive)
REMARK    1  A    between atoms: C1_1  and  C2_2 
REMARK    2  A    between atoms: C2_2  and  O2_15 
REMARK    3  A    between atoms: C4_4  and  O4_16 
REMARK    4  A    between atoms: C5_5  and  N5_12 
REMARK    5  A    between atoms: C6_6  and  C7_7 
REMARK    6  A    between atoms: C7_7  and  C8_8 
REMARK    7  A    between atoms: C7_7  and  O7_18 
REMARK    8  A    between atoms: C8_8  and  C9_9 
REMARK    9  A    between atoms: C8_8  and  O8_19 
REMARK   10  A    between atoms: C9_9  and  O9_20 
REMARK       I    between atoms: C10_10  and  N5_12 
ROOT
HETATM    1  C2  SIA A 467      -2.083  61.491  -4.930  0.87 14.23     0.256 C 
HETATM    2  C3  SIA A 467      -2.069  60.026  -4.510  0.87 13.86     0.114 C 
HETATM    3  C4  SIA A 467      -3.048  59.175  -5.305  0.87 14.98     0.149 C 
HETATM    4  C5  SIA A 467      -3.367  59.780  -6.670  0.87 13.47     0.145 C 
HETATM    5  C6  SIA A 467      -4.024  61.148  -6.458  0.87 13.63     0.182 C 
HETATM    6  O6  SIA A 467      -3.159  62.026  -5.709  0.87 12.73    -0.336 OA
ENDROOT
BRANCH   5   7
HETATM    7  C7  SIA A 467      -4.262  61.875  -7.795  0.87 12.10     0.180 C 
BRANCH   7   8
HETATM    8  C8  SIA A 467      -4.522  63.371  -7.605  0.87 13.12     0.173 C 
BRANCH   8   9
HETATM    9  C9  SIA A 467      -5.417  63.750  -6.400  0.87 12.36     0.198 C 
BRANCH   9  10
HETATM   10  O9  SIA A 467      -4.632  64.139  -5.283  0.87 13.85    -0.398 OA
HETATM   11  HO9 SIA A 467      -3.774  63.760  -5.555  0.75 15.00     0.209 HD
ENDBRANCH   9  10
ENDBRANCH   8   9
BRANCH   8  12
HETATM   12  O8  SIA A 467      -3.248  63.917  -7.346  0.87 10.39    -0.391 OA
HETATM   13  HO8 SIA A 467      -2.864  63.312  -6.697  0.75 15.00     0.210 HD
ENDBRANCH   8  12
ENDBRANCH   7   8
BRANCH   7  14
HETATM   14  O7  SIA A 467      -3.134  61.777  -8.650  0.87 12.63    -0.390 OA
HETATM   15  HO7 SIA A 467      -2.588  61.898  -7.843  0.75 15.00     0.210 HD
ENDBRANCH   7  14
ENDBRANCH   5   7
BRANCH   4  16
HETATM   16  N5  SIA A 467      -4.291  58.843  -7.283  0.87 11.91    -0.352 N 
HETATM   17  C10 SIA A 467      -4.072  57.816  -8.081  0.87 11.99     0.214 C 
HETATM   18  C11 SIA A 467      -5.294  57.016  -8.501  0.87  9.35     0.117 C 
HETATM   19  O10 SIA A 467      -2.928  57.573  -8.468  0.87 15.13    -0.274 OA
HETATM   20  HN5 SIA A 467      -5.201  59.039  -6.951  0.75 15.00     0.163 HD
ENDBRANCH   4  16
BRANCH   3  21
HETATM   21  O4  SIA A 467      -2.429  57.928  -5.522  0.87 17.69    -0.393 OA
HETATM   22  HO4 SIA A 467      -2.241  57.873  -6.480  0.75 15.00     0.210 HD
ENDBRANCH   3  21
BRANCH   1  23
HETATM   23  C1  SIA A 467      -1.666  62.697  -4.084  0.87 16.36     0.238 C 
HETATM   24  O1A SIA A 467      -1.880  63.770  -4.678  0.87 14.01    -0.644 OA
HETATM   25  O1B SIA A 467      -1.073  62.805  -2.995  0.87  8.98    -0.644 OA
ENDBRANCH   1  23
BRANCH   1  26
HETATM   26  O2  SIA A 467      -1.277  61.983  -6.003  0.87 15.98    -0.357 OA
HETATM   27  HO2 SIA A 467      -1.608  62.893  -6.129  0.75 15.00     0.213 HD
ENDBRANCH   1  26
TORSDOF 10
