REMARK  2 active torsions:
REMARK  status: ('A' for Active; 'I' for Inactive)
REMARK    1  A    between atoms: C9_14  and  N_15 
REMARK    2  A    between atoms: N11_20  and  C14_21 
ROOT
HETATM    1  N1  U05 A 999      -1.048 -37.303  22.658  1.00 23.96    -0.351 N 
ATOM      2  H1  U05 A 999      -1.207 -37.392  21.655  1.00  0.00     0.166 HD
HETATM    3  C2  U05 A 999      -0.772 -38.414  23.426  1.00 21.05     0.090 A 
HETATM    4  C3  U05 A 999      -0.537 -38.320  24.812  1.00 20.15     0.018 A 
HETATM    5  C4  U05 A 999      -0.601 -37.020  25.439  1.00 20.83     0.022 A 
HETATM    6  C4A U05 A 999      -0.899 -35.906  24.651  1.00 18.14     0.076 A 
HETATM    7  C5  U05 A 999      -0.998 -34.533  25.312  1.00 25.90     0.261 C 
HETATM    8  O13 U05 A 999      -0.265 -34.329  26.278  1.00 36.44    -0.267 OA
HETATM    9  N6  U05 A 999      -1.883 -33.584  24.903  1.00 40.51    -0.316 N 
HETATM   10  C12 U05 A 999      -1.813 -32.242  25.551  1.00 27.73     0.159 C 
HETATM   11  C6A U05 A 999      -2.883 -33.660  23.824  1.00 45.24     0.064 A 
HETATM   12  C7  U05 A 999      -4.126 -33.010  23.944  1.00 37.08     0.034 A 
HETATM   13  C8  U05 A 999      -5.116 -33.145  22.925  1.00 40.37     0.038 A 
HETATM   14  C9  U05 A 999      -4.865 -33.925  21.788  1.00 43.65     0.105 A 
HETATM   15  C10 U05 A 999      -3.619 -34.544  21.673  1.00 42.74     0.068 A 
HETATM   16  C11 U05 A 999      -2.638 -34.398  22.678  1.00 43.94     0.065 A 
HETATM   17  N11 U05 A 999      -1.347 -34.899  22.533  1.00 39.27    -0.331 N 
HETATM   18  C1A U05 A 999      -1.104 -36.080  23.267  1.00 29.92     0.123 A 
ENDROOT
BRANCH  14  19
HETATM   19  N   U05 A 999      -5.931 -34.114  20.694  1.00 50.45    -0.116 N 
HETATM   20  O1  U05 A 999      -6.830 -34.940  20.857  1.00 51.64    -0.532 OA
HETATM   21  O2  U05 A 999      -5.813 -33.449  19.697  1.00 58.57    -0.532 OA
ENDBRANCH  14  19
BRANCH  17  22
HETATM   22  C14 U05 A 999      -0.635 -34.650  21.176  1.00 34.82     0.126 C 
HETATM   23  C15 U05 A 999       0.674 -35.303  21.026  1.00 41.53     0.027 C 
ENDBRANCH  17  22
TORSDOF 2
