REMARK  2 active torsions:
REMARK  status: ('A' for Active; 'I' for Inactive)
REMARK    1  A    between atoms: C9_14  and  N_15 
REMARK    2  A    between atoms: N11_20  and  C14_21 
ROOT
HETATM    1  N1  U05 A 999      -2.964 -34.978  21.767  1.00 23.96    -0.351 N 
ATOM      2  H1  U05 A 999      -3.104 -35.700  21.061  1.00  0.00     0.166 HD
HETATM    3  C2  U05 A 999      -3.783 -33.871  21.812  1.00 21.05     0.090 A 
HETATM    4  C3  U05 A 999      -3.619 -32.864  22.783  1.00 20.15     0.018 A 
HETATM    5  C4  U05 A 999      -2.552 -32.999  23.748  1.00 20.83     0.022 A 
HETATM    6  C4A U05 A 999      -1.720 -34.118  23.679  1.00 18.14     0.076 A 
HETATM    7  C5  U05 A 999      -0.571 -34.253  24.677  1.00 25.90     0.261 C 
HETATM    8  O13 U05 A 999      -0.755 -33.786  25.800  1.00 36.44    -0.267 OA
HETATM    9  N6  U05 A 999       0.625 -34.810  24.347  1.00 40.51    -0.316 N 
HETATM   10  C12 U05 A 999       1.632 -34.988  25.434  1.00 27.73     0.159 C 
HETATM   11  C6A U05 A 999       1.062 -35.355  23.051  1.00 45.24     0.064 A 
HETATM   12  C7  U05 A 999       2.399 -35.228  22.627  1.00 37.08     0.034 A 
HETATM   13  C8  U05 A 999       2.799 -35.699  21.340  1.00 40.37     0.038 A 
HETATM   14  C9  U05 A 999       1.868 -36.296  20.479  1.00 43.65     0.105 A 
HETATM   15  C10 U05 A 999       0.552 -36.435  20.924  1.00 42.74     0.068 A 
HETATM   16  C11 U05 A 999       0.163 -35.980  22.202  1.00 43.94     0.065 A 
HETATM   17  N11 U05 A 999      -1.109 -36.217  22.720  1.00 39.27    -0.331 N 
HETATM   18  C1A U05 A 999      -1.960 -35.091  22.688  1.00 29.92     0.123 A 
ENDROOT
BRANCH  14  19
HETATM   19  N   U05 A 999       2.269 -36.777  19.074  1.00 50.45    -0.116 N 
HETATM   20  O1  U05 A 999       3.132 -36.164  18.444  1.00 51.64    -0.532 OA
HETATM   21  O2  U05 A 999       1.686 -37.736  18.638  1.00 58.57    -0.532 OA
ENDBRANCH  14  19
BRANCH  17  22
HETATM   22  C14 U05 A 999      -1.685 -37.650  22.563  1.00 34.82     0.126 C 
HETATM   23  C15 U05 A 999      -0.768 -38.737  22.940  1.00 41.53     0.027 C 
ENDBRANCH  17  22
TORSDOF 2
