REMARK  2 active torsions:
REMARK  status: ('A' for Active; 'I' for Inactive)
REMARK    1  A    between atoms: C9_14  and  N_15 
REMARK    2  A    between atoms: N11_20  and  C14_21 
ROOT
HETATM    1  N1  U05 A 999      -0.998 -37.236  22.658  1.00 23.96    -0.351 N 
ATOM      2  H1  U05 A 999      -1.162 -37.326  21.656  1.00  0.00     0.166 HD
HETATM    3  C2  U05 A 999      -0.694 -38.342  23.422  1.00 21.05     0.090 A 
HETATM    4  C3  U05 A 999      -0.452 -38.246  24.806  1.00 20.15     0.018 A 
HETATM    5  C4  U05 A 999      -0.537 -36.948  25.435  1.00 20.83     0.022 A 
HETATM    6  C4A U05 A 999      -0.862 -35.839  24.652  1.00 18.14     0.076 A 
HETATM    7  C5  U05 A 999      -0.983 -34.469  25.315  1.00 25.90     0.261 C 
HETATM    8  O13 U05 A 999      -0.247 -34.252  26.277  1.00 36.44    -0.267 OA
HETATM    9  N6  U05 A 999      -1.890 -33.537  24.914  1.00 40.51    -0.316 N 
HETATM   10  C12 U05 A 999      -1.841 -32.195  25.564  1.00 27.73     0.159 C 
HETATM   11  C6A U05 A 999      -2.895 -33.631  23.843  1.00 45.24     0.064 A 
HETATM   12  C7  U05 A 999      -4.150 -33.005  23.972  1.00 37.08     0.034 A 
HETATM   13  C8  U05 A 999      -5.144 -33.158  22.959  1.00 40.37     0.038 A 
HETATM   14  C9  U05 A 999      -4.887 -33.932  21.819  1.00 43.65     0.105 A 
HETATM   15  C10 U05 A 999      -3.629 -34.526  21.695  1.00 42.74     0.068 A 
HETATM   16  C11 U05 A 999      -2.644 -34.362  22.693  1.00 43.94     0.065 A 
HETATM   17  N11 U05 A 999      -1.344 -34.838  22.538  1.00 39.27    -0.331 N 
HETATM   18  C1A U05 A 999      -1.074 -36.015  23.269  1.00 29.92     0.123 A 
ENDROOT
BRANCH  14  19
HETATM   19  N   U05 A 999      -5.956 -34.139  20.732  1.00 50.45    -0.116 N 
HETATM   20  O1  U05 A 999      -6.880 -34.930  20.932  1.00 51.64    -0.532 OA
HETATM   21  O2  U05 A 999      -5.817 -33.525  19.706  1.00 58.57    -0.532 OA
ENDBRANCH  14  19
BRANCH  17  22
HETATM   22  C14 U05 A 999      -0.647 -34.572  21.177  1.00 34.82     0.126 C 
HETATM   23  C15 U05 A 999       0.627 -35.280  20.977  1.00 41.53     0.027 C 
ENDBRANCH  17  22
TORSDOF 2
