REMARK  2 active torsions:
REMARK  status: ('A' for Active; 'I' for Inactive)
REMARK    1  A    between atoms: C9_14  and  N_15 
REMARK    2  A    between atoms: N11_20  and  C14_21 
ROOT
HETATM    1  N1  U05 A 999      -1.052 -37.243  22.660  1.00 23.96    -0.351 N 
ATOM      2  H1  U05 A 999      -1.208 -37.328  21.656  1.00  0.00     0.166 HD
HETATM    3  C2  U05 A 999      -0.777 -38.356  23.425  1.00 21.05     0.090 A 
HETATM    4  C3  U05 A 999      -0.547 -38.267  24.811  1.00 20.15     0.018 A 
HETATM    5  C4  U05 A 999      -0.616 -36.969  25.442  1.00 20.83     0.022 A 
HETATM    6  C4A U05 A 999      -0.912 -35.852  24.658  1.00 18.14     0.076 A 
HETATM    7  C5  U05 A 999      -1.015 -34.482  25.323  1.00 25.90     0.261 C 
HETATM    8  O13 U05 A 999      -0.286 -34.280  26.293  1.00 36.44    -0.267 OA
HETATM    9  N6  U05 A 999      -1.901 -33.533  24.914  1.00 40.51    -0.316 N 
HETATM   10  C12 U05 A 999      -1.835 -32.194  25.568  1.00 27.73     0.159 C 
HETATM   11  C6A U05 A 999      -2.896 -33.606  23.832  1.00 45.24     0.064 A 
HETATM   12  C7  U05 A 999      -4.141 -32.958  23.950  1.00 37.08     0.034 A 
HETATM   13  C8  U05 A 999      -5.127 -33.091  22.926  1.00 40.37     0.038 A 
HETATM   14  C9  U05 A 999      -4.871 -33.867  21.787  1.00 43.65     0.105 A 
HETATM   15  C10 U05 A 999      -3.624 -34.484  21.675  1.00 42.74     0.068 A 
HETATM   16  C11 U05 A 999      -2.646 -34.340  22.684  1.00 43.94     0.065 A 
HETATM   17  N11 U05 A 999      -1.354 -34.839  22.542  1.00 39.27    -0.331 N 
HETATM   18  C1A U05 A 999      -1.112 -36.022  23.272  1.00 29.92     0.123 A 
ENDROOT
BRANCH  14  19
HETATM   19  N   U05 A 999      -5.932 -34.053  20.689  1.00 50.45    -0.116 N 
HETATM   20  O1  U05 A 999      -5.815 -33.449  19.622  1.00 51.64    -0.532 OA
HETATM   21  O2  U05 A 999      -6.862 -34.775  20.944  1.00 58.57    -0.532 OA
ENDBRANCH  14  19
BRANCH  17  22
HETATM   22  C14 U05 A 999      -0.638 -34.583  21.188  1.00 34.82     0.126 C 
HETATM   23  C15 U05 A 999       0.623 -35.317  20.999  1.00 41.53     0.027 C 
ENDBRANCH  17  22
TORSDOF 2
