REMARK  2 active torsions:
REMARK  status: ('A' for Active; 'I' for Inactive)
REMARK    1  A    between atoms: C9_14  and  N_15 
REMARK    2  A    between atoms: N11_20  and  C14_21 
ROOT
HETATM    1  N1  U05 A 999      -1.649 -31.039  25.747  1.00 23.96    -0.351 N 
ATOM      2  H1  U05 A 999      -2.571 -30.677  25.506  1.00  0.00     0.166 HD
HETATM    3  C2  U05 A 999      -0.633 -30.184  26.117  1.00 21.05     0.090 A 
HETATM    4  C3  U05 A 999       0.647 -30.657  26.465  1.00 20.15     0.018 A 
HETATM    5  C4  U05 A 999       0.896 -32.079  26.418  1.00 20.83     0.022 A 
HETATM    6  C4A U05 A 999      -0.137 -32.932  26.025  1.00 18.14     0.076 A 
HETATM    7  C5  U05 A 999       0.128 -34.434  25.945  1.00 25.90     0.261 C 
HETATM    8  O13 U05 A 999       0.933 -34.899  26.751  1.00 36.44    -0.267 OA
HETATM    9  N6  U05 A 999      -0.446 -35.231  25.002  1.00 40.51    -0.316 N 
HETATM   10  C12 U05 A 999      -0.200 -36.699  25.090  1.00 27.73     0.159 C 
HETATM   11  C6A U05 A 999      -1.369 -34.857  23.918  1.00 45.24     0.064 A 
HETATM   12  C7  U05 A 999      -1.323 -35.511  22.672  1.00 37.08     0.034 A 
HETATM   13  C8  U05 A 999      -2.175 -35.097  21.604  1.00 40.37     0.038 A 
HETATM   14  C9  U05 A 999      -3.072 -34.034  21.779  1.00 43.65     0.105 A 
HETATM   15  C10 U05 A 999      -3.122 -33.412  23.028  1.00 42.74     0.068 A 
HETATM   16  C11 U05 A 999      -2.286 -33.832  24.085  1.00 43.94     0.065 A 
HETATM   17  N11 U05 A 999      -2.402 -33.314  25.373  1.00 39.27    -0.331 N 
HETATM   18  C1A U05 A 999      -1.396 -32.382  25.709  1.00 29.92     0.123 A 
ENDROOT
BRANCH  14  19
HETATM   19  N   U05 A 999      -3.973 -33.548  20.631  1.00 50.45    -0.116 N 
HETATM   20  O1  U05 A 999      -5.087 -34.052  20.478  1.00 51.64    -0.532 OA
HETATM   21  O2  U05 A 999      -3.524 -32.700  19.905  1.00 58.57    -0.532 OA
ENDBRANCH  14  19
BRANCH  17  22
HETATM   22  C14 U05 A 999      -3.833 -33.182  25.961  1.00 34.82     0.126 C 
HETATM   23  C15 U05 A 999      -4.749 -32.327  25.191  1.00 41.53     0.027 C 
ENDBRANCH  17  22
TORSDOF 2
