REMARK  2 active torsions:
REMARK  status: ('A' for Active; 'I' for Inactive)
REMARK    1  A    between atoms: C9_14  and  N_15 
REMARK    2  A    between atoms: N11_20  and  C14_21 
ROOT
HETATM    1  N1  U05 A 999      -0.999 -37.249  22.659  1.00 23.96    -0.351 N 
ATOM      2  H1  U05 A 999      -1.157 -37.339  21.656  1.00  0.00     0.166 HD
HETATM    3  C2  U05 A 999      -0.709 -38.356  23.427  1.00 21.05     0.090 A 
HETATM    4  C3  U05 A 999      -0.475 -38.259  24.812  1.00 20.15     0.018 A 
HETATM    5  C4  U05 A 999      -0.554 -36.959  25.438  1.00 20.83     0.022 A 
HETATM    6  C4A U05 A 999      -0.865 -35.849  24.651  1.00 18.14     0.076 A 
HETATM    7  C5  U05 A 999      -0.979 -34.476  25.311  1.00 25.90     0.261 C 
HETATM    8  O13 U05 A 999      -0.248 -34.264  26.277  1.00 36.44    -0.267 OA
HETATM    9  N6  U05 A 999      -1.876 -33.538  24.902  1.00 40.51    -0.316 N 
HETATM   10  C12 U05 A 999      -1.821 -32.196  25.549  1.00 27.73     0.159 C 
HETATM   11  C6A U05 A 999      -2.875 -33.626  23.824  1.00 45.24     0.064 A 
HETATM   12  C7  U05 A 999      -4.125 -32.990  23.944  1.00 37.08     0.034 A 
HETATM   13  C8  U05 A 999      -5.114 -33.137  22.925  1.00 40.37     0.038 A 
HETATM   14  C9  U05 A 999      -4.855 -33.915  21.788  1.00 43.65     0.105 A 
HETATM   15  C10 U05 A 999      -3.602 -34.520  21.673  1.00 42.74     0.068 A 
HETATM   16  C11 U05 A 999      -2.622 -34.362  22.678  1.00 43.94     0.065 A 
HETATM   17  N11 U05 A 999      -1.325 -34.848  22.532  1.00 39.27    -0.331 N 
HETATM   18  C1A U05 A 999      -1.069 -36.026  23.267  1.00 29.92     0.123 A 
ENDROOT
BRANCH  14  19
HETATM   19  N   U05 A 999      -5.919 -34.116  20.694  1.00 50.45    -0.116 N 
HETATM   20  O1  U05 A 999      -5.815 -33.511  19.626  1.00 51.64    -0.532 OA
HETATM   21  O2  U05 A 999      -6.837 -34.851  20.954  1.00 58.57    -0.532 OA
ENDBRANCH  14  19
BRANCH  17  22
HETATM   22  C14 U05 A 999      -0.617 -34.591  21.174  1.00 34.82     0.126 C 
HETATM   23  C15 U05 A 999       0.648 -35.316  20.982  1.00 41.53     0.027 C 
ENDBRANCH  17  22
TORSDOF 2
