REMARK  2 active torsions:
REMARK  status: ('A' for Active; 'I' for Inactive)
REMARK    1  A    between atoms: C9_14  and  N_15 
REMARK    2  A    between atoms: N11_20  and  C14_21 
ROOT
HETATM    1  N1  U05 A 999      -1.787 -31.117  25.801  1.00 23.96    -0.351 N 
ATOM      2  H1  U05 A 999      -2.709 -30.766  25.542  1.00  0.00     0.166 HD
HETATM    3  C2  U05 A 999      -0.794 -30.251  26.204  1.00 21.05     0.090 A 
HETATM    4  C3  U05 A 999       0.485 -30.709  26.577  1.00 20.15     0.018 A 
HETATM    5  C4  U05 A 999       0.757 -32.127  26.519  1.00 20.83     0.022 A 
HETATM    6  C4A U05 A 999      -0.254 -32.990  26.092  1.00 18.14     0.076 A 
HETATM    7  C5  U05 A 999       0.035 -34.487  26.000  1.00 25.90     0.261 C 
HETATM    8  O13 U05 A 999       0.828 -34.949  26.820  1.00 36.44    -0.267 OA
HETATM    9  N6  U05 A 999      -0.504 -35.281  25.036  1.00 40.51    -0.316 N 
HETATM   10  C12 U05 A 999      -0.238 -36.746  25.112  1.00 27.73     0.159 C 
HETATM   11  C6A U05 A 999      -1.407 -34.908  23.934  1.00 45.24     0.064 A 
HETATM   12  C7  U05 A 999      -1.322 -35.546  22.682  1.00 37.08     0.034 A 
HETATM   13  C8  U05 A 999      -2.155 -35.132  21.599  1.00 40.37     0.038 A 
HETATM   14  C9  U05 A 999      -3.071 -34.085  21.765  1.00 43.65     0.105 A 
HETATM   15  C10 U05 A 999      -3.160 -33.478  23.020  1.00 42.74     0.068 A 
HETATM   16  C11 U05 A 999      -2.343 -33.899  24.092  1.00 43.94     0.065 A 
HETATM   17  N11 U05 A 999      -2.497 -33.398  25.383  1.00 39.27    -0.331 N 
HETATM   18  C1A U05 A 999      -1.514 -32.456  25.752  1.00 29.92     0.123 A 
ENDROOT
BRANCH  14  19
HETATM   19  N   U05 A 999      -3.953 -33.599  20.602  1.00 50.45    -0.116 N 
HETATM   20  O1  U05 A 999      -5.034 -34.151  20.387  1.00 51.64    -0.532 OA
HETATM   21  O2  U05 A 999      -3.520 -32.701  19.926  1.00 58.57    -0.532 OA
ENDBRANCH  14  19
BRANCH  17  22
HETATM   22  C14 U05 A 999      -3.943 -33.295  25.938  1.00 34.82     0.126 C 
HETATM   23  C15 U05 A 999      -4.811 -32.328  25.247  1.00 41.53     0.027 C 
ENDBRANCH  17  22
TORSDOF 2
