REMARK  2 active torsions:
REMARK  status: ('A' for Active; 'I' for Inactive)
REMARK    1  A    between atoms: C9_14  and  N_15 
REMARK    2  A    between atoms: N11_20  and  C14_21 
ROOT
HETATM    1  N1  U05 A 999      -1.049 -37.289  22.654  1.00 23.96    -0.351 N 
ATOM      2  H1  U05 A 999      -1.205 -37.376  21.650  1.00  0.00     0.166 HD
HETATM    3  C2  U05 A 999      -0.770 -38.401  23.420  1.00 21.05     0.090 A 
HETATM    4  C3  U05 A 999      -0.541 -38.310  24.806  1.00 20.15     0.018 A 
HETATM    5  C4  U05 A 999      -0.614 -37.012  25.436  1.00 20.83     0.022 A 
HETATM    6  C4A U05 A 999      -0.915 -35.897  24.651  1.00 18.14     0.076 A 
HETATM    7  C5  U05 A 999      -1.023 -34.526  25.315  1.00 25.90     0.261 C 
HETATM    8  O13 U05 A 999      -0.295 -34.321  26.285  1.00 36.44    -0.267 OA
HETATM    9  N6  U05 A 999      -1.912 -33.581  24.906  1.00 40.51    -0.316 N 
HETATM   10  C12 U05 A 999      -1.851 -32.241  25.558  1.00 27.73     0.159 C 
HETATM   11  C6A U05 A 999      -2.907 -33.659  23.824  1.00 45.24     0.064 A 
HETATM   12  C7  U05 A 999      -4.154 -33.016  23.941  1.00 37.08     0.034 A 
HETATM   13  C8  U05 A 999      -5.140 -33.153  22.917  1.00 40.37     0.038 A 
HETATM   14  C9  U05 A 999      -4.881 -33.929  21.779  1.00 43.65     0.105 A 
HETATM   15  C10 U05 A 999      -3.631 -34.541  21.667  1.00 42.74     0.068 A 
HETATM   16  C11 U05 A 999      -2.655 -34.392  22.676  1.00 43.94     0.065 A 
HETATM   17  N11 U05 A 999      -1.360 -34.886  22.534  1.00 39.27    -0.331 N 
HETATM   18  C1A U05 A 999      -1.114 -36.068  23.266  1.00 29.92     0.123 A 
ENDROOT
BRANCH  14  19
HETATM   19  N   U05 A 999      -5.942 -34.119  20.680  1.00 50.45    -0.116 N 
HETATM   20  O1  U05 A 999      -6.845 -34.941  20.844  1.00 51.64    -0.532 OA
HETATM   21  O2  U05 A 999      -5.817 -33.460  19.681  1.00 58.57    -0.532 OA
ENDBRANCH  14  19
BRANCH  17  22
HETATM   22  C14 U05 A 999      -0.645 -34.629  21.180  1.00 34.82     0.126 C 
HETATM   23  C15 U05 A 999       0.646 -35.315  21.015  1.00 41.53     0.027 C 
ENDBRANCH  17  22
TORSDOF 2
