REMARK  2 active torsions:
REMARK  status: ('A' for Active; 'I' for Inactive)
REMARK    1  A    between atoms: C9_14  and  N_15 
REMARK    2  A    between atoms: N11_20  and  C14_21 
ROOT
HETATM    1  N1  U05 A 999      -2.953 -34.966  21.741  1.00 23.96    -0.351 N 
ATOM      2  H1  U05 A 999      -3.095 -35.693  21.040  1.00  0.00     0.166 HD
HETATM    3  C2  U05 A 999      -3.767 -33.854  21.774  1.00 21.05     0.090 A 
HETATM    4  C3  U05 A 999      -3.601 -32.840  22.737  1.00 20.15     0.018 A 
HETATM    5  C4  U05 A 999      -2.538 -32.973  23.707  1.00 20.83     0.022 A 
HETATM    6  C4A U05 A 999      -1.711 -34.096  23.651  1.00 18.14     0.076 A 
HETATM    7  C5  U05 A 999      -0.568 -34.229  24.654  1.00 25.90     0.261 C 
HETATM    8  O13 U05 A 999      -0.753 -33.752  25.773  1.00 36.44    -0.267 OA
HETATM    9  N6  U05 A 999       0.627 -34.796  24.333  1.00 40.51    -0.316 N 
HETATM   10  C12 U05 A 999       1.629 -34.970  25.425  1.00 27.73     0.159 C 
HETATM   11  C6A U05 A 999       1.066 -35.354  23.043  1.00 45.24     0.064 A 
HETATM   12  C7  U05 A 999       2.405 -35.238  22.624  1.00 37.08     0.034 A 
HETATM   13  C8  U05 A 999       2.807 -35.721  21.342  1.00 40.37     0.038 A 
HETATM   14  C9  U05 A 999       1.876 -36.320  20.482  1.00 43.65     0.105 A 
HETATM   15  C10 U05 A 999       0.558 -36.449  20.923  1.00 42.74     0.068 A 
HETATM   16  C11 U05 A 999       0.167 -35.981  22.196  1.00 43.94     0.065 A 
HETATM   17  N11 U05 A 999      -1.108 -36.207  22.711  1.00 39.27    -0.331 N 
HETATM   18  C1A U05 A 999      -1.953 -35.077  22.666  1.00 29.92     0.123 A 
ENDROOT
BRANCH  14  19
HETATM   19  N   U05 A 999       2.280 -36.815  19.082  1.00 50.45    -0.116 N 
HETATM   20  O1  U05 A 999       1.690 -37.774  18.583  1.00 51.64    -0.532 OA
HETATM   21  O2  U05 A 999       3.193 -36.244  18.544  1.00 58.57    -0.532 OA
ENDBRANCH  14  19
BRANCH  17  22
HETATM   22  C14 U05 A 999      -1.691 -37.638  22.563  1.00 34.82     0.126 C 
HETATM   23  C15 U05 A 999      -0.777 -38.728  22.938  1.00 41.53     0.027 C 
ENDBRANCH  17  22
TORSDOF 2
