REMARK  2 active torsions:
REMARK  status: ('A' for Active; 'I' for Inactive)
REMARK    1  A    between atoms: C9_14  and  N_15 
REMARK    2  A    between atoms: N11_20  and  C14_21 
ROOT
HETATM    1  N1  U05 A 999      -1.553 -35.620  23.186  1.00 23.96    -0.351 N 
ATOM      2  H1  U05 A 999      -0.868 -36.287  22.832  1.00  0.00     0.166 HD
HETATM    3  C2  U05 A 999      -2.482 -35.052  22.341  1.00 21.05     0.090 A 
HETATM    4  C3  U05 A 999      -3.446 -34.136  22.804  1.00 20.15     0.018 A 
HETATM    5  C4  U05 A 999      -3.446 -33.779  24.204  1.00 20.83     0.022 A 
HETATM    6  C4A U05 A 999      -2.488 -34.349  25.045  1.00 18.14     0.076 A 
HETATM    7  C5  U05 A 999      -2.463 -33.954  26.520  1.00 25.90     0.261 C 
HETATM    8  O13 U05 A 999      -3.545 -33.685  27.040  1.00 36.44    -0.267 OA
HETATM    9  N6  U05 A 999      -1.308 -33.846  27.231  1.00 40.51    -0.316 N 
HETATM   10  C12 U05 A 999      -1.415 -33.561  28.691  1.00 27.73     0.159 C 
HETATM   11  C6A U05 A 999       0.077 -34.053  26.776  1.00 45.24     0.064 A 
HETATM   12  C7  U05 A 999       1.131 -33.275  27.292  1.00 37.08     0.034 A 
HETATM   13  C8  U05 A 999       2.460 -33.435  26.796  1.00 40.37     0.038 A 
HETATM   14  C9  U05 A 999       2.737 -34.370  25.789  1.00 43.65     0.105 A 
HETATM   15  C10 U05 A 999       1.685 -35.150  25.305  1.00 42.74     0.068 A 
HETATM   16  C11 U05 A 999       0.374 -34.997  25.807  1.00 43.94     0.065 A 
HETATM   17  N11 U05 A 999      -0.667 -35.844  25.433  1.00 39.27    -0.331 N 
HETATM   18  C1A U05 A 999      -1.567 -35.272  24.508  1.00 29.92     0.123 A 
ENDROOT
BRANCH  14  19
HETATM   19  N   U05 A 999       4.155 -34.534  25.215  1.00 50.45    -0.116 N 
HETATM   20  O1  U05 A 999       4.345 -35.310  24.277  1.00 51.64    -0.532 OA
HETATM   21  O2  U05 A 999       5.034 -33.902  25.742  1.00 58.57    -0.532 OA
ENDBRANCH  14  19
BRANCH  17  22
HETATM   22  C14 U05 A 999      -0.372 -37.368  25.413  1.00 34.82     0.126 C 
HETATM   23  C15 U05 A 999      -0.198 -37.954  24.075  1.00 41.53     0.027 C 
ENDBRANCH  17  22
TORSDOF 2
