612.pdb
 OpenBabel03122112503D

 48 49  0  0  0  0  0  0  0  0999 V2000
   -1.2620  -32.6740   26.3750 C   0  0  0  0  0  0  0  0  0  0  0  0
   -1.7130  -32.2670   27.7700 C   0  0  0  0  0  0  0  0  0  0  0  0
   -0.8790  -31.1280   28.2950 C   0  0  0  0  0  0  0  0  0  0  0  0
    0.6010  -31.4980   28.2970 C   0  0  0  0  0  0  0  0  0  0  0  0
    1.0500  -31.8890   26.8950 C   0  0  0  0  0  0  0  0  0  0  0  0
    0.2150  -33.0430   26.3850 C   0  0  0  0  0  0  0  0  0  0  0  0
   -2.2330  -34.1690   25.9700 S   0  0  0  0  0  0  0  0  0  0  0  0
   -2.2820  -34.3530   24.1200 C   0  0  0  0  0  0  0  0  0  0  0  0
   -1.4720  -35.2730   23.4690 C   0  0  0  0  0  0  0  0  0  0  0  0
   -0.7030  -36.4080   24.1710 C   0  0  0  0  0  0  0  0  0  0  0  0
   -1.5460  -37.2690   25.0820 C   0  0  0  0  0  0  0  0  0  0  0  0
    0.5940  -35.9790   24.7670 C   0  0  0  0  0  0  0  0  0  0  0  0
   -1.4730  -35.3300   22.0170 C   0  0  0  0  0  0  0  0  0  0  0  0
   -0.7500  -36.0730   21.3660 O   0  0  0  0  0  0  0  0  0  0  0  0
   -3.1220  -33.4910   23.3900 N   0  0  0  0  0  0  0  0  0  0  0  0
   -3.1730  -33.5190   21.9820 C   0  0  0  0  0  0  0  0  0  0  0  0
   -3.9160  -32.7880   21.3300 O   0  0  0  0  0  0  0  0  0  0  0  0
   -2.3320  -34.4370   21.3710 N   0  0  0  0  0  0  0  0  0  0  0  0
   -4.0430  -32.5340   24.0540 C   0  0  0  0  0  0  0  0  0  0  0  0
   -5.0780  -33.2040   24.7650 O   0  0  0  0  0  0  0  0  0  0  0  0
   -6.3200  -33.1590   24.0560 C   0  0  0  0  0  0  0  0  0  0  0  0
   -7.4360  -33.7350   24.8920 C   0  0  0  0  0  0  0  0  0  0  0  0
   -1.4048  -31.8801   25.6720 H   0  0  0  0  0  0  0  0  0  0  0  0
   -1.6150  -33.1050   28.4280 H   0  0  0  0  0  0  0  0  0  0  0  0
   -2.7331  -31.9480   27.7194 H   0  0  0  0  0  0  0  0  0  0  0  0
   -1.1853  -30.9003   29.2946 H   0  0  0  0  0  0  0  0  0  0  0  0
   -1.0198  -30.2781   27.6603 H   0  0  0  0  0  0  0  0  0  0  0  0
    0.7578  -32.3225   28.9607 H   0  0  0  0  0  0  0  0  0  0  0  0
    1.1707  -30.6525   28.6218 H   0  0  0  0  0  0  0  0  0  0  0  0
    2.0790  -32.1812   26.9215 H   0  0  0  0  0  0  0  0  0  0  0  0
    0.9263  -31.0512   26.2411 H   0  0  0  0  0  0  0  0  0  0  0  0
    0.5231  -33.2868   25.3897 H   0  0  0  0  0  0  0  0  0  0  0  0
    0.3558  -33.8828   27.0329 H   0  0  0  0  0  0  0  0  0  0  0  0
   -0.4308  -37.0694   23.3752 H   0  0  0  0  0  0  0  0  0  0  0  0
   -1.8712  -36.6892   25.9205 H   0  0  0  0  0  0  0  0  0  0  0  0
   -0.9653  -38.0992   25.4261 H   0  0  0  0  0  0  0  0  0  0  0  0
   -2.3987  -37.6284   24.5447 H   0  0  0  0  0  0  0  0  0  0  0  0
    0.4085  -35.3079   25.5795 H   0  0  0  0  0  0  0  0  0  0  0  0
    1.1822  -35.4841   24.0227 H   0  0  0  0  0  0  0  0  0  0  0  0
    1.1224  -36.8371   25.1267 H   0  0  0  0  0  0  0  0  0  0  0  0
   -2.3411  -34.4619   20.3869 H   0  0  0  0  0  0  0  0  0  0  0  0
   -4.4850  -31.9053   23.3095 H   0  0  0  0  0  0  0  0  0  0  0  0
   -3.4759  -31.9586   24.7556 H   0  0  0  0  0  0  0  0  0  0  0  0
   -6.2293  -33.7264   23.1533 H   0  0  0  0  0  0  0  0  0  0  0  0
   -6.5506  -32.1382   23.8331 H   0  0  0  0  0  0  0  0  0  0  0  0
   -7.2181  -34.7569   25.1225 H   0  0  0  0  0  0  0  0  0  0  0  0
   -8.3549  -33.6806   24.3465 H   0  0  0  0  0  0  0  0  0  0  0  0
   -7.5265  -33.1761   25.7999 H   0  0  0  0  0  0  0  0  0  0  0  0
  1  2  1  0  0  0  0
  1  6  1  0  0  0  0
  1  7  1  0  0  0  0
  1 23  1  0  0  0  0
  2  3  1  0  0  0  0
  2 24  1  0  0  0  0
  2 25  1  0  0  0  0
  3  4  1  0  0  0  0
  3 26  1  0  0  0  0
  3 27  1  0  0  0  0
  4  5  1  0  0  0  0
  4 28  1  0  0  0  0
  4 29  1  0  0  0  0
  5  6  1  0  0  0  0
  5 30  1  0  0  0  0
  5 31  1  0  0  0  0
  6 32  1  0  0  0  0
  6 33  1  0  0  0  0
  7  8  1  0  0  0  0
  8  9  2  0  0  0  0
  8 15  1  0  0  0  0
  9 10  1  0  0  0  0
  9 13  1  0  0  0  0
 10 11  1  0  0  0  0
 10 12  1  0  0  0  0
 10 34  1  0  0  0  0
 11 35  1  0  0  0  0
 11 36  1  0  0  0  0
 11 37  1  0  0  0  0
 12 38  1  0  0  0  0
 12 39  1  0  0  0  0
 12 40  1  0  0  0  0
 13 14  2  0  0  0  0
 13 18  1  0  0  0  0
 15 16  1  0  0  0  0
 15 19  1  0  0  0  0
 16 17  2  0  0  0  0
 16 18  1  0  0  0  0
 18 41  1  0  0  0  0
 19 20  1  0  0  0  0
 19 42  1  0  0  0  0
 19 43  1  0  0  0  0
 20 21  1  0  0  0  0
 21 22  1  0  0  0  0
 21 44  1  0  0  0  0
 21 45  1  0  0  0  0
 22 46  1  0  0  0  0
 22 47  1  0  0  0  0
 22 48  1  0  0  0  0
M  END
>  <HET>
 612  A 999      22

>  <HETSYN>
     612 TNK-6123

>  <HETNAM>
     612 6-(cyclohexylsulfanyl)-1-(ethoxymethyl)-5-(1-methylethy
   2 612 l)pyrimidine-2,4(1H,3H)-dione

>  <FORMUL>
      612    C16 H26 N2 O3 S1

$$$$
