U05.pdb
  rDOCK(R)          3D
libRbt.so/2013.1/901 2013/11/27
 22 24  0  0  0  0  0  0  0  0999 V2000
   -7.1103  -35.1403   23.8069 N   0  0  0  0  0  0
   -7.9779  -36.2061   23.7012 C   0  0  0  0  0  0
   -8.4348  -36.6718   22.4534 C   0  0  0  0  0  0
   -7.9665  -36.0145   21.2550 C   0  0  0  0  0  0
   -7.0742  -34.9472   21.3764 C   0  0  0  0  0  0
   -6.5518  -34.2665   20.1131 C   0  0  0  0  0  0
   -7.3167  -34.2227   19.1506 O   0  0  0  0  0  0
   -5.2877  -33.7728   20.0151 N   0  0  0  0  0  0
   -4.9256  -33.0320   18.7724 C   0  0  0  0  0  0
   -4.2104  -33.7925   21.0187 C   0  0  0  0  0  0
   -2.8644  -33.9364   20.6312 C   0  0  0  0  0  0
   -1.8327  -34.0232   21.6139 C   0  0  0  0  0  0
   -2.1428  -33.9648   22.9797 C   0  0  0  0  0  0
   -1.0509  -34.0920   24.0561 N   0  0  0  0  0  0
    0.0033  -34.6704   23.7872 O   0  0  0  0  0  0
   -1.2983  -33.6339   25.1418 O   0  0  0  0  0  0
   -3.4796  -33.7981   23.3465 C   0  0  0  0  0  0
   -4.4958  -33.7005   22.3708 C   0  0  0  0  0  0
   -5.8173  -33.4102   22.7028 N   0  0  0  0  0  0
   -6.0600  -32.2596   23.7164 C   0  0  0  0  0  0
   -5.9193  -32.6331   25.1322 C   0  0  0  0  0  0
   -6.6772  -34.5291   22.6633 C   0  0  0  0  0  0
  1  2  2  0  0  0
  1 22  1  0  0  0
  2  3  1  0  0  0
  3  4  2  0  0  0
  4  5  1  0  0  0
  5  6  1  0  0  0
  5 22  2  0  0  0
  6  7  2  0  0  0
  6  8  1  0  0  0
  8  9  1  0  0  0
  8 10  1  0  0  0
 10 11  2  0  0  0
 10 18  1  0  0  0
 11 12  1  0  0  0
 12 13  2  0  0  0
 13 14  1  0  0  0
 13 17  1  0  0  0
 14 15  2  0  0  0
 14 16  2  0  0  0
 17 18  2  0  0  0
 18 19  1  0  0  0
 19 20  1  0  0  0
 19 22  1  0  0  0
 20 21  1  0  0  0
M  END
>  <CHROM.0>
-176.94523547,7.08462765

>  <CHROM.1>
-23.91223789,-82.19896080,-4.87325845,-34.18682036,22.29282565,2.80214267
-0.20378695,-1.48497839

>  <FORMUL>
      U05    C15 H14 N4 O3

>  <HET>
 U05  A 999      22

>  <HETNAM>
     U05 6,11-DIHYDRO-11-ETHYL-6-METHYL-9-NITRO-5H-PYRIDO[2,3-B]
   2 U05 [1,5]BENZODIAZEPIN-5-ONE

>  <HETSYN>
     U05 1051U91

>  <Name>
U05.pdb

>  <RI>
0

>  <Rbt.Current_Directory>
/home/malgorzata/Desktop/rDOCK_IFD/Wyniki/10_hiv_rt

>  <Rbt.Executable>
rbdock ($Id: //depot/dev/client3/rdock/2013.1/src/exe/rbdock.cxx#4 $)

>  <Rbt.Library>
libRbt.so (2013.1, Build901 2013/11/27)

>  <Rbt.Parameter_File>
/home/malgorzata/Desktop/rDock_2013.1_src/data/scripts/soft_docking.prm

>  <Rbt.Receptor>
cavity.prm

>  <SCORE>
-37.2666

>  <SCORE.INTER>
-31.2483

>  <SCORE.INTER.CONST>
1

>  <SCORE.INTER.POLAR>
-0.83879

>  <SCORE.INTER.REPUL>
0

>  <SCORE.INTER.ROT>
2

>  <SCORE.INTER.VDW>
-35.7964

>  <SCORE.INTER.norm>
-1.42038

>  <SCORE.INTRA>
-0.538753

>  <SCORE.INTRA.DIHEDRAL>
1.05294

>  <SCORE.INTRA.DIHEDRAL.0>
1.34757

>  <SCORE.INTRA.POLAR>
0

>  <SCORE.INTRA.POLAR.0>
0

>  <SCORE.INTRA.REPUL>
0

>  <SCORE.INTRA.REPUL.0>
0

>  <SCORE.INTRA.VDW>
-0.749342

>  <SCORE.INTRA.VDW.0>
0.605696

>  <SCORE.INTRA.norm>
-0.0244888

>  <SCORE.RESTR>
0.274252

>  <SCORE.RESTR.CAVITY>
0.274252

>  <SCORE.RESTR.norm>
0.012466

>  <SCORE.SYSTEM>
-5.75384

>  <SCORE.SYSTEM.CONST>
0

>  <SCORE.SYSTEM.DIHEDRAL>
0.0779588

>  <SCORE.SYSTEM.POLAR>
-1.15141

>  <SCORE.SYSTEM.VDW>
-1.87803

>  <SCORE.SYSTEM.norm>
-0.261538

>  <SCORE.heavy>
22

>  <SCORE.norm>
-1.69394

$$$$
U05.pdb
  rDOCK(R)          3D
libRbt.so/2013.1/901 2013/11/27
 22 24  0  0  0  0  0  0  0  0999 V2000
   -0.4690  -29.1271   26.2513 N   0  0  0  0  0  0
    0.5511  -28.3850   25.6959 C   0  0  0  0  0  0
    1.7884  -28.9626   25.3520 C   0  0  0  0  0  0
    1.9804  -30.3761   25.5811 C   0  0  0  0  0  0
    0.9322  -31.1188   26.1283 C   0  0  0  0  0  0
    1.1173  -32.6191   26.3459 C   0  0  0  0  0  0
    2.2525  -33.0026   26.6247 O   0  0  0  0  0  0
    0.1033  -33.5132   26.1922 N   0  0  0  0  0  0
    0.3751  -34.9381   26.5385 C   0  0  0  0  0  0
   -1.2930  -33.2641   25.7966 C   0  0  0  0  0  0
   -1.9982  -34.1949   25.0101 C   0  0  0  0  0  0
   -3.3282  -33.9147   24.5737 C   0  0  0  0  0  0
   -3.9536  -32.7096   24.9226 C   0  0  0  0  0  0
   -5.3727  -32.3717   24.4338 N   0  0  0  0  0  0
   -6.1101  -33.2755   24.0368 O   0  0  0  0  0  0
   -5.6894  -31.2100   24.4372 O   0  0  0  0  0  0
   -3.2492  -31.8079   25.7227 C   0  0  0  0  0  0
   -1.9382  -32.0943   26.1623 C   0  0  0  0  0  0
   -1.2608  -31.2724   27.0604 N   0  0  0  0  0  0
   -2.0486  -30.7736   28.3017 C   0  0  0  0  0  0
   -1.2618  -30.6652   29.5398 C   0  0  0  0  0  0
   -0.2708  -30.4632   26.4622 C   0  0  0  0  0  0
  1  2  2  0  0  0
  1 22  1  0  0  0
  2  3  1  0  0  0
  3  4  2  0  0  0
  4  5  1  0  0  0
  5  6  1  0  0  0
  5 22  2  0  0  0
  6  7  2  0  0  0
  6  8  1  0  0  0
  8  9  1  0  0  0
  8 10  1  0  0  0
 10 11  2  0  0  0
 10 18  1  0  0  0
 11 12  1  0  0  0
 12 13  2  0  0  0
 13 14  1  0  0  0
 13 17  1  0  0  0
 14 15  2  0  0  0
 14 16  2  0  0  0
 17 18  2  0  0  0
 18 19  1  0  0  0
 19 20  1  0  0  0
 19 22  1  0  0  0
 20 21  1  0  0  0
M  END
>  <CHROM.0>
-169.56553866,159.10304415

>  <CHROM.1>
19.23925061,144.05396456,-1.38513834,-31.84300214,25.97052692,0.32374873
-0.25592776,0.13681155

>  <FORMUL>
      U05    C15 H14 N4 O3

>  <HET>
 U05  A 999      22

>  <HETNAM>
     U05 6,11-DIHYDRO-11-ETHYL-6-METHYL-9-NITRO-5H-PYRIDO[2,3-B]
   2 U05 [1,5]BENZODIAZEPIN-5-ONE

>  <HETSYN>
     U05 1051U91

>  <Name>
U05.pdb

>  <RI>
0

>  <Rbt.Current_Directory>
/home/malgorzata/Desktop/rDOCK_IFD/Wyniki/10_hiv_rt

>  <Rbt.Executable>
rbdock ($Id: //depot/dev/client3/rdock/2013.1/src/exe/rbdock.cxx#4 $)

>  <Rbt.Library>
libRbt.so (2013.1, Build901 2013/11/27)

>  <Rbt.Parameter_File>
/home/malgorzata/Desktop/rDock_2013.1_src/data/scripts/soft_docking.prm

>  <Rbt.Receptor>
cavity.prm

>  <SCORE>
-33.9697

>  <SCORE.INTER>
-27.8658

>  <SCORE.INTER.CONST>
1

>  <SCORE.INTER.POLAR>
0

>  <SCORE.INTER.REPUL>
0

>  <SCORE.INTER.ROT>
2

>  <SCORE.INTER.VDW>
-35.2658

>  <SCORE.INTER.norm>
-1.26663

>  <SCORE.INTRA>
-1.07893

>  <SCORE.INTRA.DIHEDRAL>
0.966478

>  <SCORE.INTRA.DIHEDRAL.0>
1.34757

>  <SCORE.INTRA.POLAR>
0

>  <SCORE.INTRA.POLAR.0>
0

>  <SCORE.INTRA.REPUL>
0

>  <SCORE.INTRA.REPUL.0>
0

>  <SCORE.INTRA.VDW>
-1.27222

>  <SCORE.INTRA.VDW.0>
0.605696

>  <SCORE.INTRA.norm>
-0.0490422

>  <SCORE.RESTR>
0.0801402

>  <SCORE.RESTR.CAVITY>
0.0801402

>  <SCORE.RESTR.norm>
0.00364274

>  <SCORE.SYSTEM>
-5.10508

>  <SCORE.SYSTEM.CONST>
0

>  <SCORE.SYSTEM.DIHEDRAL>
0.769132

>  <SCORE.SYSTEM.POLAR>
-1.12977

>  <SCORE.SYSTEM.VDW>
-1.64843

>  <SCORE.SYSTEM.norm>
-0.232049

>  <SCORE.heavy>
22

>  <SCORE.norm>
-1.54408

$$$$
U05.pdb
  rDOCK(R)          3D
libRbt.so/2013.1/901 2013/11/27
 22 24  0  0  0  0  0  0  0  0999 V2000
   -2.3578  -34.9676   26.3570 N   0  0  0  0  0  0
   -1.9930  -36.2840   26.1732 C   0  0  0  0  0  0
   -0.6551  -36.6598   25.9457 C   0  0  0  0  0  0
    0.3582  -35.6303   25.9173 C   0  0  0  0  0  0
   -0.0236  -34.3028   26.1223 C   0  0  0  0  0  0
    1.0457  -33.2125   26.1231 C   0  0  0  0  0  0
    2.0153  -33.3867   25.3862 O   0  0  0  0  0  0
    0.9778  -32.1190   26.9299 N   0  0  0  0  0  0
    2.0226  -31.0676   26.7645 C   0  0  0  0  0  0
   -0.0522  -31.7684   27.9220 C   0  0  0  0  0  0
    0.2898  -31.1006   29.1135 C   0  0  0  0  0  0
   -0.7038  -30.8252   30.1008 C   0  0  0  0  0  0
   -2.0355  -31.2137   29.8991 C   0  0  0  0  0  0
   -3.1154  -30.9588   30.9649 N   0  0  0  0  0  0
   -4.0763  -31.7251   31.0519 O   0  0  0  0  0  0
   -2.9788  -29.9842   31.6586 O   0  0  0  0  0  0
   -2.3624  -31.8537   28.7021 C   0  0  0  0  0  0
   -1.3787  -32.1133   27.7228 C   0  0  0  0  0  0
   -1.6976  -32.6363   26.4715 N   0  0  0  0  0  0
   -2.9126  -32.0165   25.7300 C   0  0  0  0  0  0
   -3.1465  -32.5323   24.3724 C   0  0  0  0  0  0
   -1.3869  -34.0057   26.3266 C   0  0  0  0  0  0
  1  2  2  0  0  0
  1 22  1  0  0  0
  2  3  1  0  0  0
  3  4  2  0  0  0
  4  5  1  0  0  0
  5  6  1  0  0  0
  5 22  2  0  0  0
  6  7  2  0  0  0
  6  8  1  0  0  0
  8  9  1  0  0  0
  8 10  1  0  0  0
 10 11  2  0  0  0
 10 18  1  0  0  0
 11 12  1  0  0  0
 12 13  2  0  0  0
 13 14  1  0  0  0
 13 17  1  0  0  0
 14 15  2  0  0  0
 14 16  2  0  0  0
 17 18  2  0  0  0
 18 19  1  0  0  0
 19 20  1  0  0  0
 19 22  1  0  0  0
 20 21  1  0  0  0
M  END
>  <CHROM.0>
-175.30602908,3.65886679

>  <CHROM.1>
-150.47750456,175.59238457,-1.13008261,-32.69578088,27.56219386,1.17523172
-0.32244727,-2.33772724

>  <FORMUL>
      U05    C15 H14 N4 O3

>  <HET>
 U05  A 999      22

>  <HETNAM>
     U05 6,11-DIHYDRO-11-ETHYL-6-METHYL-9-NITRO-5H-PYRIDO[2,3-B]
   2 U05 [1,5]BENZODIAZEPIN-5-ONE

>  <HETSYN>
     U05 1051U91

>  <Name>
U05.pdb

>  <RI>
0

>  <Rbt.Current_Directory>
/home/malgorzata/Desktop/rDOCK_IFD/Wyniki/10_hiv_rt

>  <Rbt.Executable>
rbdock ($Id: //depot/dev/client3/rdock/2013.1/src/exe/rbdock.cxx#4 $)

>  <Rbt.Library>
libRbt.so (2013.1, Build901 2013/11/27)

>  <Rbt.Parameter_File>
/home/malgorzata/Desktop/rDock_2013.1_src/data/scripts/soft_docking.prm

>  <Rbt.Receptor>
cavity.prm

>  <SCORE>
-29.3189

>  <SCORE.INTER>
-23.1969

>  <SCORE.INTER.CONST>
1

>  <SCORE.INTER.POLAR>
0

>  <SCORE.INTER.REPUL>
0

>  <SCORE.INTER.ROT>
2

>  <SCORE.INTER.VDW>
-30.5969

>  <SCORE.INTER.norm>
-1.0544

>  <SCORE.INTRA>
-0.416307

>  <SCORE.INTRA.DIHEDRAL>
2.24471

>  <SCORE.INTRA.DIHEDRAL.0>
1.34757

>  <SCORE.INTRA.POLAR>
0

>  <SCORE.INTRA.POLAR.0>
0

>  <SCORE.INTRA.REPUL>
0

>  <SCORE.INTRA.REPUL.0>
0

>  <SCORE.INTRA.VDW>
-0.865249

>  <SCORE.INTRA.VDW.0>
0.605696

>  <SCORE.INTRA.norm>
-0.0189231

>  <SCORE.RESTR>
0

>  <SCORE.RESTR.CAVITY>
0

>  <SCORE.RESTR.norm>
0

>  <SCORE.SYSTEM>
-5.70576

>  <SCORE.SYSTEM.CONST>
0

>  <SCORE.SYSTEM.DIHEDRAL>
0.0432866

>  <SCORE.SYSTEM.POLAR>
-1.14453

>  <SCORE.SYSTEM.VDW>
-1.836

>  <SCORE.SYSTEM.norm>
-0.259353

>  <SCORE.heavy>
22

>  <SCORE.norm>
-1.33268

$$$$
U05.pdb
  rDOCK(R)          3D
libRbt.so/2013.1/901 2013/11/27
 22 24  0  0  0  0  0  0  0  0999 V2000
    0.9910  -32.2232   28.6818 N   0  0  0  0  0  0
    0.6695  -31.7777   29.9458 C   0  0  0  0  0  0
   -0.6208  -31.3123   30.2641 C   0  0  0  0  0  0
   -1.6325  -31.3164   29.2327 C   0  0  0  0  0  0
   -1.2972  -31.7868   27.9614 C   0  0  0  0  0  0
   -2.3692  -31.8220   26.8742 C   0  0  0  0  0  0
   -3.2278  -30.9419   26.9140 O   0  0  0  0  0  0
   -2.4237  -32.7993   25.9292 N   0  0  0  0  0  0
   -3.4483  -32.6689   24.8533 C   0  0  0  0  0  0
   -1.5417  -33.9659   25.7579 C   0  0  0  0  0  0
   -2.0496  -35.1934   25.2914 C   0  0  0  0  0  0
   -1.2022  -36.3380   25.1933 C   0  0  0  0  0  0
    0.1489  -36.2576   25.5582 C   0  0  0  0  0  0
    1.0714  -37.4872   25.4941 N   0  0  0  0  0  0
    0.6685  -38.5222   24.9605 O   0  0  0  0  0  0
    2.1564  -37.3833   26.0057 O   0  0  0  0  0  0
    0.6423  -35.0271   25.9962 C   0  0  0  0  0  0
   -0.1966  -33.8943   26.0802 C   0  0  0  0  0  0
    0.2949  -32.6290   26.3938 N   0  0  0  0  0  0
    1.5920  -32.1711   25.6741 C   0  0  0  0  0  0
    1.9524  -30.7588   25.8727 C   0  0  0  0  0  0
    0.0223  -32.2200   27.7171 C   0  0  0  0  0  0
  1  2  2  0  0  0
  1 22  1  0  0  0
  2  3  1  0  0  0
  3  4  2  0  0  0
  4  5  1  0  0  0
  5  6  1  0  0  0
  5 22  2  0  0  0
  6  7  2  0  0  0
  6  8  1  0  0  0
  8  9  1  0  0  0
  8 10  1  0  0  0
 10 11  2  0  0  0
 10 18  1  0  0  0
 11 12  1  0  0  0
 12 13  2  0  0  0
 13 14  1  0  0  0
 13 17  1  0  0  0
 14 15  2  0  0  0
 14 16  2  0  0  0
 17 18  2  0  0  0
 18 19  1  0  0  0
 19 20  1  0  0  0
 19 22  1  0  0  0
 20 21  1  0  0  0
M  END
>  <CHROM.0>
154.48937250,-153.28266531

>  <CHROM.1>
9.02669126,170.71468662,-0.41900170,-33.60743485,26.62347150,-1.84726186
0.39214695,-2.59416014

>  <FORMUL>
      U05    C15 H14 N4 O3

>  <HET>
 U05  A 999      22

>  <HETNAM>
     U05 6,11-DIHYDRO-11-ETHYL-6-METHYL-9-NITRO-5H-PYRIDO[2,3-B]
   2 U05 [1,5]BENZODIAZEPIN-5-ONE

>  <HETSYN>
     U05 1051U91

>  <Name>
U05.pdb

>  <RI>
0

>  <Rbt.Current_Directory>
/home/malgorzata/Desktop/rDOCK_IFD/Wyniki/10_hiv_rt

>  <Rbt.Executable>
rbdock ($Id: //depot/dev/client3/rdock/2013.1/src/exe/rbdock.cxx#4 $)

>  <Rbt.Library>
libRbt.so (2013.1, Build901 2013/11/27)

>  <Rbt.Parameter_File>
/home/malgorzata/Desktop/rDock_2013.1_src/data/scripts/soft_docking.prm

>  <Rbt.Receptor>
cavity.prm

>  <SCORE>
-31.1824

>  <SCORE.INTER>
-26.2766

>  <SCORE.INTER.CONST>
1

>  <SCORE.INTER.POLAR>
0

>  <SCORE.INTER.REPUL>
0

>  <SCORE.INTER.ROT>
2

>  <SCORE.INTER.VDW>
-33.6766

>  <SCORE.INTER.norm>
-1.19439

>  <SCORE.INTRA>
-0.911101

>  <SCORE.INTRA.DIHEDRAL>
-0.687779

>  <SCORE.INTRA.DIHEDRAL.0>
1.34757

>  <SCORE.INTRA.POLAR>
0

>  <SCORE.INTRA.POLAR.0>
0

>  <SCORE.INTRA.REPUL>
0

>  <SCORE.INTRA.REPUL.0>
0

>  <SCORE.INTRA.VDW>
-0.773545

>  <SCORE.INTRA.VDW.0>
0.605696

>  <SCORE.INTRA.norm>
-0.0414137

>  <SCORE.RESTR>
0.155418

>  <SCORE.RESTR.CAVITY>
0.155418

>  <SCORE.RESTR.norm>
0.00706445

>  <SCORE.SYSTEM>
-4.15017

>  <SCORE.SYSTEM.CONST>
0

>  <SCORE.SYSTEM.DIHEDRAL>
1.87466

>  <SCORE.SYSTEM.POLAR>
-0.922724

>  <SCORE.SYSTEM.VDW>
-1.95024

>  <SCORE.SYSTEM.norm>
-0.188644

>  <SCORE.heavy>
22

>  <SCORE.norm>
-1.41738

$$$$
U05.pdb
  rDOCK(R)          3D
libRbt.so/2013.1/901 2013/11/27
 22 24  0  0  0  0  0  0  0  0999 V2000
   -7.6145  -34.7747   24.3408 N   0  0  0  0  0  0
   -8.5286  -35.7767   24.0957 C   0  0  0  0  0  0
   -8.6696  -36.3589   22.8213 C   0  0  0  0  0  0
   -7.8196  -35.8939   21.7496 C   0  0  0  0  0  0
   -6.8861  -34.8903   22.0167 C   0  0  0  0  0  0
   -5.9639  -34.4143   20.8962 C   0  0  0  0  0  0
   -6.4230  -34.4335   19.7550 O   0  0  0  0  0  0
   -4.6766  -34.0337   21.1177 N   0  0  0  0  0  0
   -3.9067  -33.4836   19.9649 C   0  0  0  0  0  0
   -3.9280  -34.0090   22.3854 C   0  0  0  0  0  0
   -2.5511  -34.3016   22.4173 C   0  0  0  0  0  0
   -1.8475  -34.3426   23.6587 C   0  0  0  0  0  0
   -2.5156  -34.0906   24.8650 C   0  0  0  0  0  0
   -1.7849  -34.1643   26.2170 N   0  0  0  0  0  0
   -2.3650  -33.8023   27.2419 O   0  0  0  0  0  0
   -0.6460  -34.5548   26.2017 O   0  0  0  0  0  0
   -3.8755  -33.7788   24.8138 C   0  0  0  0  0  0
   -4.5651  -33.7274   23.5825 C   0  0  0  0  0  0
   -5.8875  -33.2988   23.4903 N   0  0  0  0  0  0
   -6.2757  -32.0156   24.2729 C   0  0  0  0  0  0
   -6.7493  -32.2403   25.6474 C   0  0  0  0  0  0
   -6.8183  -34.3457   23.3156 C   0  0  0  0  0  0
  1  2  2  0  0  0
  1 22  1  0  0  0
  2  3  1  0  0  0
  3  4  2  0  0  0
  4  5  1  0  0  0
  5  6  1  0  0  0
  5 22  2  0  0  0
  6  7  2  0  0  0
  6  8  1  0  0  0
  8  9  1  0  0  0
  8 10  1  0  0  0
 10 11  2  0  0  0
 10 18  1  0  0  0
 11 12  1  0  0  0
 12 13  2  0  0  0
 13 14  1  0  0  0
 13 17  1  0  0  0
 14 15  2  0  0  0
 14 16  2  0  0  0
 17 18  2  0  0  0
 18 19  1  0  0  0
 19 20  1  0  0  0
 19 22  1  0  0  0
 20 21  1  0  0  0
M  END
>  <CHROM.0>
-168.98774984,167.99463296

>  <CHROM.1>
172.46775847,-90.13239456,-4.96372945,-34.18821032,23.44429898,2.52150505
-0.11295970,-1.64319292

>  <FORMUL>
      U05    C15 H14 N4 O3

>  <HET>
 U05  A 999      22

>  <HETNAM>
     U05 6,11-DIHYDRO-11-ETHYL-6-METHYL-9-NITRO-5H-PYRIDO[2,3-B]
   2 U05 [1,5]BENZODIAZEPIN-5-ONE

>  <HETSYN>
     U05 1051U91

>  <Name>
U05.pdb

>  <RI>
0

>  <Rbt.Current_Directory>
/home/malgorzata/Desktop/rDOCK_IFD/Wyniki/10_hiv_rt

>  <Rbt.Executable>
rbdock ($Id: //depot/dev/client3/rdock/2013.1/src/exe/rbdock.cxx#4 $)

>  <Rbt.Library>
libRbt.so (2013.1, Build901 2013/11/27)

>  <Rbt.Parameter_File>
/home/malgorzata/Desktop/rDock_2013.1_src/data/scripts/soft_docking.prm

>  <Rbt.Receptor>
cavity.prm

>  <SCORE>
-35.7768

>  <SCORE.INTER>
-29.7593

>  <SCORE.INTER.CONST>
1

>  <SCORE.INTER.POLAR>
-0.115955

>  <SCORE.INTER.REPUL>
0

>  <SCORE.INTER.ROT>
2

>  <SCORE.INTER.VDW>
-36.7651

>  <SCORE.INTER.norm>
-1.3527

>  <SCORE.INTRA>
-0.672076

>  <SCORE.INTRA.DIHEDRAL>
-0.540694

>  <SCORE.INTRA.DIHEDRAL.0>
1.34757

>  <SCORE.INTRA.POLAR>
0

>  <SCORE.INTRA.POLAR.0>
0

>  <SCORE.INTRA.REPUL>
0

>  <SCORE.INTRA.REPUL.0>
0

>  <SCORE.INTRA.VDW>
-0.563937

>  <SCORE.INTRA.VDW.0>
0.605696

>  <SCORE.INTRA.norm>
-0.0305489

>  <SCORE.RESTR>
0

>  <SCORE.RESTR.CAVITY>
0

>  <SCORE.RESTR.norm>
0

>  <SCORE.SYSTEM>
-5.34537

>  <SCORE.SYSTEM.CONST>
0

>  <SCORE.SYSTEM.DIHEDRAL>
0.377481

>  <SCORE.SYSTEM.POLAR>
-1.1291

>  <SCORE.SYSTEM.VDW>
-1.69516

>  <SCORE.SYSTEM.norm>
-0.242971

>  <SCORE.heavy>
22

>  <SCORE.norm>
-1.62622

$$$$
U05.pdb
  rDOCK(R)          3D
libRbt.so/2013.1/901 2013/11/27
 22 24  0  0  0  0  0  0  0  0999 V2000
   -7.8926  -35.0198   24.1559 N   0  0  0  0  0  0
   -8.6531  -36.1543   23.9707 C   0  0  0  0  0  0
   -8.7570  -36.7828   22.7150 C   0  0  0  0  0  0
   -8.0329  -36.2218   21.5977 C   0  0  0  0  0  0
   -7.2525  -35.0823   21.8039 C   0  0  0  0  0  0
   -6.4608  -34.5008   20.6346 C   0  0  0  0  0  0
   -6.9587  -34.6177   19.5157 O   0  0  0  0  0  0
   -5.2382  -33.9246   20.7908 N   0  0  0  0  0  0
   -4.6096  -33.2936   19.5946 C   0  0  0  0  0  0
   -4.4499  -33.7553   22.0229 C   0  0  0  0  0  0
   -3.0444  -33.8357   21.9982 C   0  0  0  0  0  0
   -2.2917  -33.7387   23.2073 C   0  0  0  0  0  0
   -2.9395  -33.5604   24.4376 C   0  0  0  0  0  0
   -2.1504  -33.4889   25.7564 N   0  0  0  0  0  0
   -2.7478  -33.5965   26.8287 O   0  0  0  0  0  0
   -0.9643  -33.2987   25.6736 O   0  0  0  0  0  0
   -4.3320  -33.4590   24.4418 C   0  0  0  0  0  0
   -5.0720  -33.5432   23.2420 C   0  0  0  0  0  0
   -6.4469  -33.3218   23.2015 N   0  0  0  0  0  0
   -6.9928  -32.0927   23.9769 C   0  0  0  0  0  0
   -7.1649  -32.2921   25.4242 C   0  0  0  0  0  0
   -7.2142  -34.5013   23.0882 C   0  0  0  0  0  0
  1  2  2  0  0  0
  1 22  1  0  0  0
  2  3  1  0  0  0
  3  4  2  0  0  0
  4  5  1  0  0  0
  5  6  1  0  0  0
  5 22  2  0  0  0
  6  7  2  0  0  0
  6  8  1  0  0  0
  8  9  1  0  0  0
  8 10  1  0  0  0
 10 11  2  0  0  0
 10 18  1  0  0  0
 11 12  1  0  0  0
 12 13  2  0  0  0
 13 14  1  0  0  0
 13 17  1  0  0  0
 14 15  2  0  0  0
 14 16  2  0  0  0
 17 18  2  0  0  0
 18 19  1  0  0  0
 19 20  1  0  0  0
 19 22  1  0  0  0
 20 21  1  0  0  0
M  END
>  <CHROM.0>
166.77747222,150.90506824

>  <CHROM.1>
-165.77046360,-80.72783961,-5.39159641,-34.05924581,23.13320430,2.55310271
-0.28538568,-1.64328793

>  <FORMUL>
      U05    C15 H14 N4 O3

>  <HET>
 U05  A 999      22

>  <HETNAM>
     U05 6,11-DIHYDRO-11-ETHYL-6-METHYL-9-NITRO-5H-PYRIDO[2,3-B]
   2 U05 [1,5]BENZODIAZEPIN-5-ONE

>  <HETSYN>
     U05 1051U91

>  <Name>
U05.pdb

>  <RI>
0

>  <Rbt.Current_Directory>
/home/malgorzata/Desktop/rDOCK_IFD/Wyniki/10_hiv_rt

>  <Rbt.Executable>
rbdock ($Id: //depot/dev/client3/rdock/2013.1/src/exe/rbdock.cxx#4 $)

>  <Rbt.Library>
libRbt.so (2013.1, Build901 2013/11/27)

>  <Rbt.Parameter_File>
/home/malgorzata/Desktop/rDock_2013.1_src/data/scripts/soft_docking.prm

>  <Rbt.Receptor>
cavity.prm

>  <SCORE>
-36.0327

>  <SCORE.INTER>
-30.6155

>  <SCORE.INTER.CONST>
1

>  <SCORE.INTER.POLAR>
-0.386237

>  <SCORE.INTER.REPUL>
0

>  <SCORE.INTER.ROT>
2

>  <SCORE.INTER.VDW>
-36.7023

>  <SCORE.INTER.norm>
-1.39161

>  <SCORE.INTRA>
-0.707332

>  <SCORE.INTRA.DIHEDRAL>
-0.166107

>  <SCORE.INTRA.DIHEDRAL.0>
1.34757

>  <SCORE.INTRA.POLAR>
0

>  <SCORE.INTRA.POLAR.0>
0

>  <SCORE.INTRA.REPUL>
0

>  <SCORE.INTRA.REPUL.0>
0

>  <SCORE.INTRA.VDW>
-0.674111

>  <SCORE.INTRA.VDW.0>
0.605696

>  <SCORE.INTRA.norm>
-0.0321515

>  <SCORE.RESTR>
0

>  <SCORE.RESTR.CAVITY>
0

>  <SCORE.RESTR.norm>
0

>  <SCORE.SYSTEM>
-4.70988

>  <SCORE.SYSTEM.CONST>
0

>  <SCORE.SYSTEM.DIHEDRAL>
1.42289

>  <SCORE.SYSTEM.POLAR>
-1.0742

>  <SCORE.SYSTEM.VDW>
-1.76906

>  <SCORE.SYSTEM.norm>
-0.214085

>  <SCORE.heavy>
22

>  <SCORE.norm>
-1.63785

$$$$
U05.pdb
  rDOCK(R)          3D
libRbt.so/2013.1/901 2013/11/27
 22 24  0  0  0  0  0  0  0  0999 V2000
   -7.7367  -35.0081   24.6750 N   0  0  0  0  0  0
   -8.5464  -36.0702   24.3345 C   0  0  0  0  0  0
   -8.5851  -36.5855   23.0247 C   0  0  0  0  0  0
   -7.7400  -35.9845   22.0187 C   0  0  0  0  0  0
   -6.9119  -34.9204   22.3820 C   0  0  0  0  0  0
   -5.9940  -34.2993   21.3313 C   0  0  0  0  0  0
   -6.4051  -34.2907   20.1719 O   0  0  0  0  0  0
   -4.7557  -33.8208   21.6297 N   0  0  0  0  0  0
   -3.9949  -33.1374   20.5442 C   0  0  0  0  0  0
   -4.0618  -33.8061   22.9283 C   0  0  0  0  0  0
   -2.6664  -33.9778   23.0039 C   0  0  0  0  0  0
   -2.0103  -34.0307   24.2706 C   0  0  0  0  0  0
   -2.7443  -33.9108   25.4588 C   0  0  0  0  0  0
   -2.0625  -34.0004   26.8351 N   0  0  0  0  0  0
   -0.8970  -34.3927   26.9116 O   0  0  0  0  0  0
   -2.7269  -33.7026   27.7941 O   0  0  0  0  0  0
   -4.1239  -33.7172   25.3657 C   0  0  0  0  0  0
   -4.7673  -33.6534   24.1103 C   0  0  0  0  0  0
   -6.1185  -33.3380   23.9846 N   0  0  0  0  0  0
   -6.6509  -32.1428   24.8200 C   0  0  0  0  0  0
   -6.9772  -32.4543   26.2202 C   0  0  0  0  0  0
   -6.9435  -34.4504   23.7112 C   0  0  0  0  0  0
  1  2  2  0  0  0
  1 22  1  0  0  0
  2  3  1  0  0  0
  3  4  2  0  0  0
  4  5  1  0  0  0
  5  6  1  0  0  0
  5 22  2  0  0  0
  6  7  2  0  0  0
  6  8  1  0  0  0
  8  9  1  0  0  0
  8 10  1  0  0  0
 10 11  2  0  0  0
 10 18  1  0  0  0
 11 12  1  0  0  0
 12 13  2  0  0  0
 13 14  1  0  0  0
 13 17  1  0  0  0
 14 15  2  0  0  0
 14 16  2  0  0  0
 17 18  2  0  0  0
 18 19  1  0  0  0
 19 20  1  0  0  0
 19 22  1  0  0  0
 20 21  1  0  0  0
M  END
>  <CHROM.0>
-167.20235561,-171.22425350

>  <CHROM.1>
-11.66250163,-81.88249491,-5.10916719,-34.13957553,23.93272330,2.46865254
-0.20175588,-1.59089709

>  <FORMUL>
      U05    C15 H14 N4 O3

>  <HET>
 U05  A 999      22

>  <HETNAM>
     U05 6,11-DIHYDRO-11-ETHYL-6-METHYL-9-NITRO-5H-PYRIDO[2,3-B]
   2 U05 [1,5]BENZODIAZEPIN-5-ONE

>  <HETSYN>
     U05 1051U91

>  <Name>
U05.pdb

>  <RI>
0

>  <Rbt.Current_Directory>
/home/malgorzata/Desktop/rDOCK_IFD/Wyniki/10_hiv_rt

>  <Rbt.Executable>
rbdock ($Id: //depot/dev/client3/rdock/2013.1/src/exe/rbdock.cxx#4 $)

>  <Rbt.Library>
libRbt.so (2013.1, Build901 2013/11/27)

>  <Rbt.Parameter_File>
/home/malgorzata/Desktop/rDock_2013.1_src/data/scripts/soft_docking.prm

>  <Rbt.Receptor>
cavity.prm

>  <SCORE>
-36.0974

>  <SCORE.INTER>
-30.0051

>  <SCORE.INTER.CONST>
1

>  <SCORE.INTER.POLAR>
0

>  <SCORE.INTER.REPUL>
0.0157993

>  <SCORE.INTER.ROT>
2

>  <SCORE.INTER.VDW>
-37.4841

>  <SCORE.INTER.norm>
-1.36387

>  <SCORE.INTRA>
-0.727984

>  <SCORE.INTRA.DIHEDRAL>
-0.493442

>  <SCORE.INTRA.DIHEDRAL.0>
1.34757

>  <SCORE.INTRA.POLAR>
0

>  <SCORE.INTRA.POLAR.0>
0

>  <SCORE.INTRA.REPUL>
0

>  <SCORE.INTRA.REPUL.0>
0

>  <SCORE.INTRA.VDW>
-0.629296

>  <SCORE.INTRA.VDW.0>
0.605696

>  <SCORE.INTRA.norm>
-0.0330902

>  <SCORE.RESTR>
0

>  <SCORE.RESTR.CAVITY>
0

>  <SCORE.RESTR.norm>
0

>  <SCORE.SYSTEM>
-5.36431

>  <SCORE.SYSTEM.CONST>
0

>  <SCORE.SYSTEM.DIHEDRAL>
0.324301

>  <SCORE.SYSTEM.POLAR>
-1.12799

>  <SCORE.SYSTEM.VDW>
-1.69131

>  <SCORE.SYSTEM.norm>
-0.243832

>  <SCORE.heavy>
22

>  <SCORE.norm>
-1.64079

$$$$
U05.pdb
  rDOCK(R)          3D
libRbt.so/2013.1/901 2013/11/27
 22 24  0  0  0  0  0  0  0  0999 V2000
   -3.5617  -35.4989   21.0866 N   0  0  0  0  0  0
   -2.2460  -35.8864   21.2227 C   0  0  0  0  0  0
   -1.3699  -35.2418   22.1171 C   0  0  0  0  0  0
   -1.8769  -34.1520   22.9187 C   0  0  0  0  0  0
   -3.2165  -33.7816   22.7829 C   0  0  0  0  0  0
   -3.7672  -32.6501   23.6481 C   0  0  0  0  0  0
   -2.9855  -31.7469   23.9425 O   0  0  0  0  0  0
   -5.0409  -32.6457   24.1264 N   0  0  0  0  0  0
   -5.5004  -31.4360   24.8679 C   0  0  0  0  0  0
   -6.0956  -33.6576   23.9484 C   0  0  0  0  0  0
   -7.0206  -33.9257   24.9755 C   0  0  0  0  0  0
   -7.9968  -34.9557   24.8209 C   0  0  0  0  0  0
   -8.0512  -35.7151   23.6439 C   0  0  0  0  0  0
   -9.0718  -36.8532   23.4703 N   0  0  0  0  0  0
   -9.2500  -37.3449   22.3546 O   0  0  0  0  0  0
   -9.6803  -37.1955   24.4513 O   0  0  0  0  0  0
   -7.1422  -35.4207   22.6258 C   0  0  0  0  0  0
   -6.1860  -34.3928   22.7781 C   0  0  0  0  0  0
   -5.3516  -33.9957   21.7355 N   0  0  0  0  0  0
   -6.0020  -33.7968   20.3400 C   0  0  0  0  0  0
   -5.1920  -33.0377   19.3747 C   0  0  0  0  0  0
   -4.0255  -34.4654   21.8521 C   0  0  0  0  0  0
  1  2  2  0  0  0
  1 22  1  0  0  0
  2  3  1  0  0  0
  3  4  2  0  0  0
  4  5  1  0  0  0
  5  6  1  0  0  0
  5 22  2  0  0  0
  6  7  2  0  0  0
  6  8  1  0  0  0
  8  9  1  0  0  0
  8 10  1  0  0  0
 10 11  2  0  0  0
 10 18  1  0  0  0
 11 12  1  0  0  0
 12 13  2  0  0  0
 13 14  1  0  0  0
 13 17  1  0  0  0
 14 15  2  0  0  0
 14 16  2  0  0  0
 17 18  2  0  0  0
 18 19  1  0  0  0
 19 20  1  0  0  0
 19 22  1  0  0  0
 20 21  1  0  0  0
M  END
>  <CHROM.0>
176.62776314,-179.59620874

>  <CHROM.1>
167.56297462,163.93857217,-5.54661186,-34.45353593,22.86190179,-0.13513870
-0.45062954,-2.32019388

>  <FORMUL>
      U05    C15 H14 N4 O3

>  <HET>
 U05  A 999      22

>  <HETNAM>
     U05 6,11-DIHYDRO-11-ETHYL-6-METHYL-9-NITRO-5H-PYRIDO[2,3-B]
   2 U05 [1,5]BENZODIAZEPIN-5-ONE

>  <HETSYN>
     U05 1051U91

>  <Name>
U05.pdb

>  <RI>
0

>  <Rbt.Current_Directory>
/home/malgorzata/Desktop/rDOCK_IFD/Wyniki/10_hiv_rt

>  <Rbt.Executable>
rbdock ($Id: //depot/dev/client3/rdock/2013.1/src/exe/rbdock.cxx#4 $)

>  <Rbt.Library>
libRbt.so (2013.1, Build901 2013/11/27)

>  <Rbt.Parameter_File>
/home/malgorzata/Desktop/rDock_2013.1_src/data/scripts/soft_docking.prm

>  <Rbt.Receptor>
cavity.prm

>  <SCORE>
-33.0011

>  <SCORE.INTER>
-26.1183

>  <SCORE.INTER.CONST>
1

>  <SCORE.INTER.POLAR>
0

>  <SCORE.INTER.REPUL>
0.0299744

>  <SCORE.INTER.ROT>
2

>  <SCORE.INTER.VDW>
-33.6682

>  <SCORE.INTER.norm>
-1.1872

>  <SCORE.INTRA>
-1.07832

>  <SCORE.INTRA.DIHEDRAL>
-0.505222

>  <SCORE.INTRA.DIHEDRAL.0>
1.34757

>  <SCORE.INTRA.POLAR>
0

>  <SCORE.INTRA.POLAR.0>
0

>  <SCORE.INTRA.REPUL>
0

>  <SCORE.INTRA.REPUL.0>
0

>  <SCORE.INTRA.VDW>
-0.977278

>  <SCORE.INTRA.VDW.0>
0.605696

>  <SCORE.INTRA.norm>
-0.0490147

>  <SCORE.RESTR>
0

>  <SCORE.RESTR.CAVITY>
0

>  <SCORE.RESTR.norm>
0

>  <SCORE.SYSTEM>
-5.80452

>  <SCORE.SYSTEM.CONST>
0

>  <SCORE.SYSTEM.DIHEDRAL>
0.0220695

>  <SCORE.SYSTEM.POLAR>
-1.17847

>  <SCORE.SYSTEM.VDW>
-1.80874

>  <SCORE.SYSTEM.norm>
-0.263842

>  <SCORE.heavy>
22

>  <SCORE.norm>
-1.50005

$$$$
U05.pdb
  rDOCK(R)          3D
libRbt.so/2013.1/901 2013/11/27
 22 24  0  0  0  0  0  0  0  0999 V2000
   -0.8189  -29.1697   26.0526 N   0  0  0  0  0  0
    0.0845  -28.3170   25.4555 C   0  0  0  0  0  0
    1.3865  -28.7322   25.1165 C   0  0  0  0  0  0
    1.7734  -30.0959   25.3959 C   0  0  0  0  0  0
    0.8422  -30.9535   25.9852 C   0  0  0  0  0  0
    1.2341  -32.4044   26.2566 C   0  0  0  0  0  0
    2.4136  -32.6172   26.5338 O   0  0  0  0  0  0
    0.3517  -33.4346   26.1507 N   0  0  0  0  0  0
    0.8202  -34.7941   26.5466 C   0  0  0  0  0  0
   -1.0689  -33.3953   25.7655 C   0  0  0  0  0  0
   -1.6459  -34.4443   25.0244 C   0  0  0  0  0  0
   -3.0055  -34.3667   24.5963 C   0  0  0  0  0  0
   -3.7879  -33.2462   24.9082 C   0  0  0  0  0  0
   -5.2442  -33.1258   24.4267 N   0  0  0  0  0  0
   -5.8799  -32.0974   24.6644 O   0  0  0  0  0  0
   -5.7100  -34.0762   23.8527 O   0  0  0  0  0  0
   -3.2077  -32.2256   25.6639 C   0  0  0  0  0  0
   -1.8660  -32.3118   26.0957 C   0  0  0  0  0  0
   -1.3006  -31.3701   26.9528 N   0  0  0  0  0  0
   -2.1389  -30.9359   28.1852 C   0  0  0  0  0  0
   -1.4127  -30.9279   29.4644 C   0  0  0  0  0  0
   -0.4367  -30.4567   26.3108 C   0  0  0  0  0  0
  1  2  2  0  0  0
  1 22  1  0  0  0
  2  3  1  0  0  0
  3  4  2  0  0  0
  4  5  1  0  0  0
  5  6  1  0  0  0
  5 22  2  0  0  0
  6  7  2  0  0  0
  6  8  1  0  0  0
  8  9  1  0  0  0
  8 10  1  0  0  0
 10 11  2  0  0  0
 10 18  1  0  0  0
 11 12  1  0  0  0
 12 13  2  0  0  0
 13 14  1  0  0  0
 13 17  1  0  0  0
 14 15  2  0  0  0
 14 16  2  0  0  0
 17 18  2  0  0  0
 18 19  1  0  0  0
 19 20  1  0  0  0
 19 22  1  0  0  0
 20 21  1  0  0  0
M  END
>  <CHROM.0>
-156.83072191,167.57621128

>  <CHROM.1>
-176.44744522,132.55726021,-1.35795232,-32.00846771,25.89263945,0.45607325
-0.22292825,0.13191866

>  <FORMUL>
      U05    C15 H14 N4 O3

>  <HET>
 U05  A 999      22

>  <HETNAM>
     U05 6,11-DIHYDRO-11-ETHYL-6-METHYL-9-NITRO-5H-PYRIDO[2,3-B]
   2 U05 [1,5]BENZODIAZEPIN-5-ONE

>  <HETSYN>
     U05 1051U91

>  <Name>
U05.pdb

>  <RI>
0

>  <Rbt.Current_Directory>
/home/malgorzata/Desktop/rDOCK_IFD/Wyniki/10_hiv_rt

>  <Rbt.Executable>
rbdock ($Id: //depot/dev/client3/rdock/2013.1/src/exe/rbdock.cxx#4 $)

>  <Rbt.Library>
libRbt.so (2013.1, Build901 2013/11/27)

>  <Rbt.Parameter_File>
/home/malgorzata/Desktop/rDock_2013.1_src/data/scripts/soft_docking.prm

>  <Rbt.Receptor>
cavity.prm

>  <SCORE>
-33.181

>  <SCORE.INTER>
-26.8305

>  <SCORE.INTER.CONST>
1

>  <SCORE.INTER.POLAR>
0

>  <SCORE.INTER.REPUL>
0

>  <SCORE.INTER.ROT>
2

>  <SCORE.INTER.VDW>
-34.2305

>  <SCORE.INTER.norm>
-1.21957

>  <SCORE.INTRA>
-1.25694

>  <SCORE.INTRA.DIHEDRAL>
0.110403

>  <SCORE.INTRA.DIHEDRAL.0>
1.34757

>  <SCORE.INTRA.POLAR>
0

>  <SCORE.INTRA.POLAR.0>
0

>  <SCORE.INTRA.REPUL>
0

>  <SCORE.INTRA.REPUL.0>
0

>  <SCORE.INTRA.VDW>
-1.27902

>  <SCORE.INTRA.VDW.0>
0.605696

>  <SCORE.INTRA.norm>
-0.0571337

>  <SCORE.RESTR>
0

>  <SCORE.RESTR.CAVITY>
0

>  <SCORE.RESTR.norm>
0

>  <SCORE.SYSTEM>
-5.09354

>  <SCORE.SYSTEM.CONST>
0

>  <SCORE.SYSTEM.DIHEDRAL>
0.946141

>  <SCORE.SYSTEM.POLAR>
-1.14983

>  <SCORE.SYSTEM.VDW>
-1.65717

>  <SCORE.SYSTEM.norm>
-0.231524

>  <SCORE.heavy>
22

>  <SCORE.norm>
-1.50823

$$$$
U05.pdb
  rDOCK(R)          3D
libRbt.so/2013.1/901 2013/11/27
 22 24  0  0  0  0  0  0  0  0999 V2000
    2.2420  -30.7629   26.0843 N   0  0  0  0  0  0
    2.5669  -29.7085   25.2583 C   0  0  0  0  0  0
    1.5807  -28.8905   24.6742 C   0  0  0  0  0  0
    0.1922  -29.1653   24.9641 C   0  0  0  0  0  0
   -0.1214  -30.2260   25.8164 C   0  0  0  0  0  0
   -1.5852  -30.5042   26.1510 C   0  0  0  0  0  0
   -2.4111  -30.2555   25.2737 O   0  0  0  0  0  0
   -1.9862  -30.9543   27.3708 N   0  0  0  0  0  0
   -3.4275  -31.2950   27.5462 C   0  0  0  0  0  0
   -1.1690  -31.2402   28.5618 C   0  0  0  0  0  0
   -1.6675  -30.9960   29.8558 C   0  0  0  0  0  0
   -0.8443  -31.2112   31.0021 C   0  0  0  0  0  0
    0.4722  -31.6705   30.8578 C   0  0  0  0  0  0
    1.3882  -31.8754   32.0769 N   0  0  0  0  0  0
    2.1924  -32.8088   32.0828 O   0  0  0  0  0  0
    1.2505  -31.1122   32.9979 O   0  0  0  0  0  0
    0.9432  -31.9304   29.5694 C   0  0  0  0  0  0
    0.1216  -31.7277   28.4389 C   0  0  0  0  0  0
    0.5214  -32.0953   27.1560 N   0  0  0  0  0  0
    1.1749  -33.4933   26.9876 C   0  0  0  0  0  0
    0.2435  -34.6304   27.0462 C   0  0  0  0  0  0
    0.9235  -31.0098   26.3480 C   0  0  0  0  0  0
  1  2  2  0  0  0
  1 22  1  0  0  0
  2  3  1  0  0  0
  3  4  2  0  0  0
  4  5  1  0  0  0
  5  6  1  0  0  0
  5 22  2  0  0  0
  6  7  2  0  0  0
  6  8  1  0  0  0
  8  9  1  0  0  0
  8 10  1  0  0  0
 10 11  2  0  0  0
 10 18  1  0  0  0
 11 12  1  0  0  0
 12 13  2  0  0  0
 13 14  1  0  0  0
 13 17  1  0  0  0
 14 15  2  0  0  0
 14 16  2  0  0  0
 17 18  2  0  0  0
 18 19  1  0  0  0
 19 20  1  0  0  0
 19 22  1  0  0  0
 20 21  1  0  0  0
M  END
>  <CHROM.0>
173.10946449,-10.50196853

>  <CHROM.1>
144.40427836,74.91598847,0.11804067,-31.29383740,28.06425914,-1.72729337
-0.05944169,1.82606253

>  <FORMUL>
      U05    C15 H14 N4 O3

>  <HET>
 U05  A 999      22

>  <HETNAM>
     U05 6,11-DIHYDRO-11-ETHYL-6-METHYL-9-NITRO-5H-PYRIDO[2,3-B]
   2 U05 [1,5]BENZODIAZEPIN-5-ONE

>  <HETSYN>
     U05 1051U91

>  <Name>
U05.pdb

>  <RI>
0

>  <Rbt.Current_Directory>
/home/malgorzata/Desktop/rDOCK_IFD/Wyniki/10_hiv_rt

>  <Rbt.Executable>
rbdock ($Id: //depot/dev/client3/rdock/2013.1/src/exe/rbdock.cxx#4 $)

>  <Rbt.Library>
libRbt.so (2013.1, Build901 2013/11/27)

>  <Rbt.Parameter_File>
/home/malgorzata/Desktop/rDock_2013.1_src/data/scripts/soft_docking.prm

>  <Rbt.Receptor>
cavity.prm

>  <SCORE>
-34.3932

>  <SCORE.INTER>
-27.9869

>  <SCORE.INTER.CONST>
1

>  <SCORE.INTER.POLAR>
0

>  <SCORE.INTER.REPUL>
0

>  <SCORE.INTER.ROT>
2

>  <SCORE.INTER.VDW>
-35.3869

>  <SCORE.INTER.norm>
-1.27213

>  <SCORE.INTRA>
-0.62189

>  <SCORE.INTRA.DIHEDRAL>
4.00308

>  <SCORE.INTRA.DIHEDRAL.0>
1.34757

>  <SCORE.INTRA.POLAR>
0

>  <SCORE.INTRA.POLAR.0>
0

>  <SCORE.INTRA.REPUL>
0

>  <SCORE.INTRA.REPUL.0>
0

>  <SCORE.INTRA.VDW>
-1.42251

>  <SCORE.INTRA.VDW.0>
0.605696

>  <SCORE.INTRA.norm>
-0.0282677

>  <SCORE.RESTR>
0

>  <SCORE.RESTR.CAVITY>
0

>  <SCORE.RESTR.norm>
0

>  <SCORE.SYSTEM>
-5.78443

>  <SCORE.SYSTEM.CONST>
0

>  <SCORE.SYSTEM.DIHEDRAL>
0.246619

>  <SCORE.SYSTEM.POLAR>
-1.15369

>  <SCORE.SYSTEM.VDW>
-1.9852

>  <SCORE.SYSTEM.norm>
-0.262929

>  <SCORE.heavy>
22

>  <SCORE.norm>
-1.56333

$$$$
