@<TRIPOS>MOLECULE
pose4.pdb
 36 38 0 0 0
SMALL
GASTEIGER

@<TRIPOS>ATOM
      1  N1        -0.0250  -31.7020   28.9980 N.ar    1  LIG1       -0.2371
      2  C1        -0.5530  -31.3230   30.2130 C.ar    1  LIG1        0.0299
      3  C2        -1.8810  -30.8710   30.3380 C.ar    1  LIG1       -0.0427
      4  C3        -2.7090  -30.8170   29.1550 C.ar    1  LIG1       -0.0444
      5  C4        -2.1650  -31.2210   27.9330 C.ar    1  LIG1        0.0819
      6  C5        -3.0430  -31.1950   26.6840 C.ar    1  LIG1        0.2622
      7  O1        -3.9010  -30.3150   26.6270 O.2     1  LIG1       -0.2669
      8  N2        -2.9350  -32.1210   25.6920 N.ar    1  LIG1       -0.3092
      9  C6        -3.7690  -31.9300   24.4700 C.3     1  LIG1        0.0153
     10  C7        -2.0310  -33.2800   25.6080 C.ar    1  LIG1        0.0683
     11  C8        -2.4480  -34.4790   25.0000 C.ar    1  LIG1       -0.0339
     12  C9        -1.5900  -35.6200   24.9830 C.ar    1  LIG1       -0.0294
     13  C10       -0.3180  -35.5630   25.5700 C.ar    1  LIG1        0.1283
     14  N3         0.6090  -36.7910   25.5950 N.pl3   1  LIG1        0.0565
     15  O2         1.8210  -36.6400   25.4370 O.2     1  LIG1       -0.1261
     16  O3         0.0870  -37.8660   25.7420 O.2     1  LIG1       -0.1261
     17  C11        0.0890  -34.3590   26.1480 C.ar    1  LIG1       -0.0059
     18  C12       -0.7580  -33.2300   26.1510 C.ar    1  LIG1        0.0694
     19  N4        -0.3320  -31.9840   26.6080 N.ar    1  LIG1       -0.3237
     20  C13        1.0640  -31.4940   26.1380 C.3     1  LIG1        0.0224
     21  C14        1.1170  -30.0930   25.6910 C.3     1  LIG1       -0.0470
     22  C15       -0.8210  -31.6450   27.8880 C.ar    1  LIG1        0.1463
     23 H           0.0415  -31.3717   31.0552 H       1  LIG1        0.0830
     24 H          -2.2552  -30.5841   31.2560 H       1  LIG1        0.0633
     25 H          -3.6848  -30.4859   29.2116 H       1  LIG1        0.0627
     26 H          -4.3992  -31.0749   24.5984 H       1  LIG1        0.0457
     27 H          -4.3739  -32.7983   24.3117 H       1  LIG1        0.0457
     28 H          -3.1321  -31.7798   23.6234 H       1  LIG1        0.0457
     29 H          -3.3813  -34.5338   24.5630 H       1  LIG1        0.0639
     30 H          -1.9085  -36.4935   24.5352 H       1  LIG1        0.0641
     31 H           1.0240  -34.2935   26.5799 H       1  LIG1        0.0662
     32 H           1.3756  -32.1137   25.3233 H       1  LIG1        0.0490
     33 H           1.7050  -31.5582   26.9923 H       1  LIG1        0.0490
     34 H           0.4902  -29.9685   24.8328 H       1  LIG1        0.0247
     35 H           2.1245  -29.8376   25.4369 H       1  LIG1        0.0247
     36 H           0.7749  -29.4542   26.4783 H       1  LIG1        0.0247
@<TRIPOS>BOND
     1     1     2   ar
     2     1    22   ar
     3     2     3   ar
     4     3     4   ar
     5     4     5   ar
     6     5     6   ar
     7     5    22   ar
     8     6     7    2
     9     6     8   ar
    10     8     9    1
    11     8    10   ar
    12    10    11   ar
    13    10    18   ar
    14    11    12   ar
    15    12    13   ar
    16    13    14    1
    17    13    17   ar
    18    14    15    2
    19    14    16    2
    20    17    18   ar
    21    18    19   ar
    22    19    20    1
    23    19    22   ar
    24    20    21    1
    25     2    23    1
    26     3    24    1
    27     4    25    1
    28     9    26    1
    29     9    27    1
    30     9    28    1
    31    11    29    1
    32    12    30    1
    33    17    31    1
    34    20    32    1
    35    20    33    1
    36    21    34    1
    37    21    35    1
    38    21    36    1
