@<TRIPOS>MOLECULE
pose1.pdb
 36 38 0 0 0
SMALL
GASTEIGER

@<TRIPOS>ATOM
      1  N1         1.9800  -32.6420   29.1450 N.ar    1  LIG1       -0.2371
      2  C1         1.8650  -32.3240   30.4820 C.ar    1  LIG1        0.0299
      3  C2         0.7070  -31.7180   31.0050 C.ar    1  LIG1       -0.0427
      4  C3        -0.3910  -31.4350   30.1100 C.ar    1  LIG1       -0.0444
      5  C4        -0.2670  -31.7780   28.7620 C.ar    1  LIG1        0.0819
      6  C5        -1.4350  -31.5090   27.8150 C.ar    1  LIG1        0.2622
      7  O1        -2.1310  -30.5240   28.0590 O.2     1  LIG1       -0.2669
      8  N2        -1.7440  -32.3340   26.7780 N.ar    1  LIG1       -0.3092
      9  C6        -2.8370  -31.9120   25.8560 C.3     1  LIG1        0.0153
     10  C7        -1.0850  -33.5860   26.3690 C.ar    1  LIG1        0.0683
     11  C8        -1.8310  -34.6520   25.8290 C.ar    1  LIG1       -0.0339
     12  C9        -1.1950  -35.8870   25.4990 C.ar    1  LIG1       -0.0294
     13  C10        0.1810  -36.0570   25.7050 C.ar    1  LIG1        0.1283
     14  N3         0.8800  -37.3910   25.3890 N.pl3   1  LIG1        0.0565
     15  O2         2.0720  -37.5330   25.6650 O.2     1  LIG1       -0.1261
     16  O3         0.2180  -38.2400   24.8510 O.2     1  LIG1       -0.1261
     17  C11        0.9100  -34.9830   26.2180 C.ar    1  LIG1       -0.0059
     18  C12        0.2790  -33.7590   26.5320 C.ar    1  LIG1        0.0694
     19  N4         1.0000  -32.6330   26.9270 N.ar    1  LIG1       -0.3237
     20  C13        2.2740  -32.2830   26.1130 C.3     1  LIG1        0.0224
     21  C14        2.4750  -30.8490   25.8520 C.3     1  LIG1       -0.0470
     22  C15        0.9320  -32.3670   28.3120 C.ar    1  LIG1        0.1463
     23 H           2.6502  -32.5363   31.1172 H       1  LIG1        0.0830
     24 H           0.6438  -31.4808   32.0074 H       1  LIG1        0.0633
     25 H          -1.2521  -30.9871   30.4607 H       1  LIG1        0.0627
     26 H          -3.2705  -31.0002   26.2104 H       1  LIG1        0.0457
     27 H          -3.5877  -32.6736   25.8206 H       1  LIG1        0.0457
     28 H          -2.4373  -31.7593   24.8753 H       1  LIG1        0.0457
     29 H          -2.8446  -34.5395   25.6708 H       1  LIG1        0.0639
     30 H          -1.7530  -36.6609   25.1056 H       1  LIG1        0.0641
     31 H           1.9256  -35.0848   26.3702 H       1  LIG1        0.0662
     32 H           2.2134  -32.7859   25.1705 H       1  LIG1        0.0490
     33 H           3.1043  -32.5957   26.7111 H       1  LIG1        0.0490
     34 H           1.6689  -30.4790   25.2535 H       1  LIG1        0.0247
     35 H           3.3994  -30.7072   25.3322 H       1  LIG1        0.0247
     36 H           2.5029  -30.3180   26.7805 H       1  LIG1        0.0247
@<TRIPOS>BOND
     1     1     2   ar
     2     1    22   ar
     3     2     3   ar
     4     3     4   ar
     5     4     5   ar
     6     5     6   ar
     7     5    22   ar
     8     6     7    2
     9     6     8   ar
    10     8     9    1
    11     8    10   ar
    12    10    11   ar
    13    10    18   ar
    14    11    12   ar
    15    12    13   ar
    16    13    14    1
    17    13    17   ar
    18    14    15    2
    19    14    16    2
    20    17    18   ar
    21    18    19   ar
    22    19    20    1
    23    19    22   ar
    24    20    21    1
    25     2    23    1
    26     3    24    1
    27     4    25    1
    28     9    26    1
    29     9    27    1
    30     9    28    1
    31    11    29    1
    32    12    30    1
    33    17    31    1
    34    20    32    1
    35    20    33    1
    36    21    34    1
    37    21    35    1
    38    21    36    1
