@<TRIPOS>MOLECULE
pose7.pdb
 36 38 0 0 0
SMALL
GASTEIGER

@<TRIPOS>ATOM
      1  N1        -1.2860  -37.0680   22.6070 N.ar    1  LIG1       -0.2371
      2  C1        -0.9870  -38.3710   22.9420 C.ar    1  LIG1        0.0299
      3  C2        -0.5360  -38.7240   24.2290 C.ar    1  LIG1       -0.0427
      4  C3        -0.3980  -37.6840   25.2230 C.ar    1  LIG1       -0.0444
      5  C4        -0.7210  -36.3710   24.8740 C.ar    1  LIG1        0.0819
      6  C5        -0.6060  -35.2720   25.9280 C.ar    1  LIG1        0.2622
      7  O1         0.2800  -35.4030   26.7710 O.2     1  LIG1       -0.2669
      8  N2        -1.4630  -34.2170   25.9840 N.ar    1  LIG1       -0.3092
      9  C6        -1.1860  -33.1490   26.9880 C.3     1  LIG1        0.0153
     10  C7        -2.6190  -33.9210   25.1210 C.ar    1  LIG1        0.0683
     11  C8        -3.7720  -33.3050   25.6430 C.ar    1  LIG1       -0.0339
     12  C9        -4.9140  -33.0840   24.8150 C.ar    1  LIG1       -0.0294
     13  C10       -4.9040  -33.4760   23.4690 C.ar    1  LIG1        0.1283
     14  N3        -6.1360  -33.2800   22.5680 N.pl3   1  LIG1        0.0565
     15  O2        -5.9970  -33.2590   21.3440 O.2     1  LIG1       -0.1261
     16  O3        -7.1960  -33.1240   23.1180 O.2     1  LIG1       -0.1261
     17  C11       -3.7450  -34.0640   22.9610 C.ar    1  LIG1       -0.0059
     18  C12       -2.6130  -34.2690   23.7800 C.ar    1  LIG1        0.0694
     19  N4        -1.4040  -34.7380   23.2710 N.ar    1  LIG1       -0.3237
     20  C13       -0.8900  -34.0970   21.9540 C.3     1  LIG1        0.0224
     21  C14       -1.3810  -34.7280   20.7190 C.3     1  LIG1       -0.0470
     22  C15       -1.1490  -36.0970   23.5590 C.ar    1  LIG1        0.1463
     23 H          -1.0967  -39.1094   22.2294 H       1  LIG1        0.0830
     24 H          -0.3089  -39.7045   24.4572 H       1  LIG1        0.0633
     25 H          -0.0665  -37.9078   26.1743 H       1  LIG1        0.0627
     26 H          -0.3381  -33.4262   27.5789 H       1  LIG1        0.0457
     27 H          -2.0385  -33.0265   27.6229 H       1  LIG1        0.0457
     28 H          -0.9827  -32.2282   26.4824 H       1  LIG1        0.0457
     29 H          -3.7921  -33.0108   26.6320 H       1  LIG1        0.0639
     30 H          -5.7534  -32.6322   25.2104 H       1  LIG1        0.0641
     31 H          -3.7146  -34.3537   21.9710 H       1  LIG1        0.0662
     32 H           0.1785  -34.1537   21.9529 H       1  LIG1        0.0490
     33 H          -1.2639  -33.0945   21.9451 H       1  LIG1        0.0490
     34 H          -1.0355  -35.7397   20.6736 H       1  LIG1        0.0247
     35 H          -1.0137  -34.1873   19.8718 H       1  LIG1        0.0247
     36 H          -2.4509  -34.7159   20.7133 H       1  LIG1        0.0247
@<TRIPOS>BOND
     1     1     2   ar
     2     1    22   ar
     3     2     3   ar
     4     3     4   ar
     5     4     5   ar
     6     5     6   ar
     7     5    22   ar
     8     6     7    2
     9     6     8   ar
    10     8     9    1
    11     8    10   ar
    12    10    11   ar
    13    10    18   ar
    14    11    12   ar
    15    12    13   ar
    16    13    14    1
    17    13    17   ar
    18    14    15    2
    19    14    16    2
    20    17    18   ar
    21    18    19   ar
    22    19    20    1
    23    19    22   ar
    24    20    21    1
    25     2    23    1
    26     3    24    1
    27     4    25    1
    28     9    26    1
    29     9    27    1
    30     9    28    1
    31    11    29    1
    32    12    30    1
    33    17    31    1
    34    20    32    1
    35    20    33    1
    36    21    34    1
    37    21    35    1
    38    21    36    1
