@<TRIPOS>MOLECULE
pose2.pdb
 36 38 0 0 0
SMALL
GASTEIGER

@<TRIPOS>ATOM
      1  N1        -2.8490  -34.9830   26.5720 N.ar    1  LIG1       -0.2371
      2  C1        -2.4650  -36.2750   26.2840 C.ar    1  LIG1        0.0299
      3  C2        -1.1780  -36.5770   25.7980 C.ar    1  LIG1       -0.0427
      4  C3        -0.2370  -35.4960   25.6110 C.ar    1  LIG1       -0.0444
      5  C4        -0.6350  -34.1950   25.9230 C.ar    1  LIG1        0.0819
      6  C5         0.3640  -33.0510   25.7560 C.ar    1  LIG1        0.2622
      7  O1         1.1830  -33.1610   24.8450 O.2     1  LIG1       -0.2669
      8  N2         0.3990  -31.9800   26.5930 N.ar    1  LIG1       -0.3092
      9  C6         1.3430  -30.8730   26.2660 C.3     1  LIG1        0.0153
     10  C7        -0.4410  -31.7030   27.7710 C.ar    1  LIG1        0.0683
     11  C8         0.0890  -31.0430   28.8970 C.ar    1  LIG1       -0.0339
     12  C9        -0.7120  -30.8390   30.0610 C.ar    1  LIG1       -0.0294
     13  C10       -2.0380  -31.2910   30.1010 C.ar    1  LIG1        0.1283
     14  N3        -2.9080  -31.1140   31.3580 N.pl3   1  LIG1        0.0565
     15  O2        -2.3850  -30.7520   32.4130 O.2     1  LIG1       -0.1261
     16  O3        -4.0800  -31.3710   31.2520 O.2     1  LIG1       -0.1261
     17  C11       -2.5550  -31.9220   28.9680 C.ar    1  LIG1       -0.0059
     18  C12       -1.7630  -32.1110   27.8140 C.ar    1  LIG1        0.0694
     19  N4        -2.2880  -32.6240   26.6300 N.ar    1  LIG1       -0.3237
     20  C13       -3.6490  -32.0520   26.1480 C.3     1  LIG1        0.0224
     21  C14       -3.9290  -32.2270   24.7150 C.3     1  LIG1       -0.0470
     22  C15       -1.9470  -33.9720   26.3890 C.ar    1  LIG1        0.1463
     23 H          -3.1394  -37.0427   26.4285 H       1  LIG1        0.0830
     24 H          -0.9124  -37.5501   25.5799 H       1  LIG1        0.0633
     25 H           0.7127  -35.6828   25.2530 H       1  LIG1        0.0627
     26 H           1.9194  -31.1386   25.4046 H       1  LIG1        0.0457
     27 H           1.9978  -30.7059   27.0956 H       1  LIG1        0.0457
     28 H           0.7892  -29.9802   26.0632 H       1  LIG1        0.0457
     29 H           1.0637  -30.7044   28.8804 H       1  LIG1        0.0639
     30 H          -0.3114  -30.3548   30.8796 H       1  LIG1        0.0641
     31 H          -3.5315  -32.2557   28.9738 H       1  LIG1        0.0662
     32 H          -3.6622  -31.0038   26.3623 H       1  LIG1        0.0490
     33 H          -4.4041  -32.6038   26.6678 H       1  LIG1        0.0490
     34 H          -3.2004  -31.6932   24.1414 H       1  LIG1        0.0247
     35 H          -4.9048  -31.8481   24.4934 H       1  LIG1        0.0247
     36 H          -3.8856  -33.2671   24.4675 H       1  LIG1        0.0247
@<TRIPOS>BOND
     1     1     2   ar
     2     1    22   ar
     3     2     3   ar
     4     3     4   ar
     5     4     5   ar
     6     5     6   ar
     7     5    22   ar
     8     6     7    2
     9     6     8   ar
    10     8     9    1
    11     8    10   ar
    12    10    11   ar
    13    10    18   ar
    14    11    12   ar
    15    12    13   ar
    16    13    14    1
    17    13    17   ar
    18    14    15    2
    19    14    16    2
    20    17    18   ar
    21    18    19   ar
    22    19    20    1
    23    19    22   ar
    24    20    21    1
    25     2    23    1
    26     3    24    1
    27     4    25    1
    28     9    26    1
    29     9    27    1
    30     9    28    1
    31    11    29    1
    32    12    30    1
    33    17    31    1
    34    20    32    1
    35    20    33    1
    36    21    34    1
    37    21    35    1
    38    21    36    1
