@<TRIPOS>MOLECULE
pose8.pdb
 36 38 0 0 0
SMALL
GASTEIGER

@<TRIPOS>ATOM
      1  N1        -7.6870  -35.0030   24.0760 N.ar    1  LIG1       -0.2371
      2  C1        -8.5590  -35.9830   23.6520 C.ar    1  LIG1        0.0299
      3  C2        -8.6910  -36.3240   22.2930 C.ar    1  LIG1       -0.0427
      4  C3        -7.8770  -35.6290   21.3220 C.ar    1  LIG1       -0.0444
      5  C4        -6.9850  -34.6500   21.7680 C.ar    1  LIG1        0.0819
      6  C5        -6.1000  -33.9320   20.7510 C.ar    1  LIG1        0.2622
      7  O1        -6.5730  -33.7600   19.6290 O.2     1  LIG1       -0.2669
      8  N2        -4.8280  -33.5400   21.0340 N.ar    1  LIG1       -0.3092
      9  C6        -4.0990  -32.7500   20.0000 C.3     1  LIG1        0.0153
     10  C7        -4.0650  -33.7170   22.2800 C.ar    1  LIG1        0.0683
     11  C8        -2.6760  -33.9460   22.2510 C.ar    1  LIG1       -0.0339
     12  C9        -1.9550  -34.1850   23.4600 C.ar    1  LIG1       -0.0294
     13  C10       -2.6180  -34.1930   24.6950 C.ar    1  LIG1        0.1283
     14  N3        -1.8670  -34.4830   26.0060 N.pl3   1  LIG1        0.0565
     15  O2        -2.4990  -34.8300   27.0050 O.2     1  LIG1       -0.1261
     16  O3        -0.6730  -34.3260   25.9980 O.2     1  LIG1       -0.1261
     17  C11       -3.9910  -33.9400   24.7090 C.ar    1  LIG1       -0.0059
     18  C12       -4.6980  -33.6930   23.5120 C.ar    1  LIG1        0.0694
     19  N4        -6.0390  -33.3160   23.5080 N.ar    1  LIG1       -0.3237
     20  C13       -6.4740  -32.2210   24.5170 C.3     1  LIG1        0.0224
     21  C14       -6.9450  -32.7200   25.8180 C.3     1  LIG1       -0.0470
     22  C15       -6.9250  -34.3540   23.1450 C.ar    1  LIG1        0.1463
     23 H          -9.1316  -36.4810   24.3514 H       1  LIG1        0.0830
     24 H          -9.3556  -37.0555   21.9959 H       1  LIG1        0.0633
     25 H          -7.9531  -35.8517   20.3172 H       1  LIG1        0.0627
     26 H          -4.7080  -32.6602   19.1248 H       1  LIG1        0.0457
     27 H          -3.1855  -33.2476   19.7494 H       1  LIG1        0.0457
     28 H          -3.8805  -31.7755   20.3841 H       1  LIG1        0.0457
     29 H          -2.1751  -33.9411   21.3487 H       1  LIG1        0.0639
     30 H          -0.9374  -34.3532   23.4243 H       1  LIG1        0.0641
     31 H          -4.4971  -33.9334   25.6084 H       1  LIG1        0.0662
     32 H          -7.2669  -31.6570   24.0720 H       1  LIG1        0.0490
     33 H          -5.5987  -31.6403   24.7208 H       1  LIG1        0.0490
     34 H          -7.8249  -33.3120   25.6756 H       1  LIG1        0.0247
     35 H          -7.1717  -31.8920   26.4567 H       1  LIG1        0.0247
     36 H          -6.1811  -33.3190   26.2680 H       1  LIG1        0.0247
@<TRIPOS>BOND
     1     1     2   ar
     2     1    22   ar
     3     2     3   ar
     4     3     4   ar
     5     4     5   ar
     6     5     6   ar
     7     5    22   ar
     8     6     7    2
     9     6     8   ar
    10     8     9    1
    11     8    10   ar
    12    10    11   ar
    13    10    18   ar
    14    11    12   ar
    15    12    13   ar
    16    13    14    1
    17    13    17   ar
    18    14    15    2
    19    14    16    2
    20    17    18   ar
    21    18    19   ar
    22    19    20    1
    23    19    22   ar
    24    20    21    1
    25     2    23    1
    26     3    24    1
    27     4    25    1
    28     9    26    1
    29     9    27    1
    30     9    28    1
    31    11    29    1
    32    12    30    1
    33    17    31    1
    34    20    32    1
    35    20    33    1
    36    21    34    1
    37    21    35    1
    38    21    36    1
