@<TRIPOS>MOLECULE
pose9.pdb
 36 38 0 0 0
SMALL
GASTEIGER

@<TRIPOS>ATOM
      1  N1        -7.4960  -35.4980   23.7930 N.ar    1  LIG1       -0.2371
      2  C1        -8.4670  -36.4130   23.4470 C.ar    1  LIG1        0.0299
      3  C2        -8.7730  -36.7000   22.1030 C.ar    1  LIG1       -0.0427
      4  C3        -8.0340  -36.0200   21.0640 C.ar    1  LIG1       -0.0444
      5  C4        -7.0400  -35.1090   21.4300 C.ar    1  LIG1        0.0819
      6  C5        -6.2340  -34.4090   20.3370 C.ar    1  LIG1        0.2622
      7  O1        -6.8200  -34.1730   19.2820 O.2     1  LIG1       -0.2669
      8  N2        -4.9170  -34.1000   20.4820 N.ar    1  LIG1       -0.3092
      9  C6        -4.2640  -33.3190   19.3920 C.3     1  LIG1        0.0153
     10  C7        -4.0290  -34.3610   21.6270 C.ar    1  LIG1        0.0683
     11  C8        -2.6690  -34.6680   21.4310 C.ar    1  LIG1       -0.0339
     12  C9        -1.8310  -34.9870   22.5420 C.ar    1  LIG1       -0.0294
     13  C10       -2.3490  -34.9980   23.8450 C.ar    1  LIG1        0.1283
     14  N3        -1.4730  -35.3740   25.0530 N.pl3   1  LIG1        0.0565
     15  O2        -2.0060  -35.7600   26.0940 O.2     1  LIG1       -0.1261
     16  O3        -0.2830  -35.2420   24.9260 O.2     1  LIG1       -0.1261
     17  C11       -3.6940  -34.6690   24.0240 C.ar    1  LIG1       -0.0059
     18  C12       -4.5160  -34.3420   22.9240 C.ar    1  LIG1        0.0694
     19  N4        -5.8240  -33.8900   23.0840 N.ar    1  LIG1       -0.3237
     20  C13       -6.0750  -32.8050   24.1650 C.3     1  LIG1        0.0224
     21  C14       -5.3820  -31.5270   23.9420 C.3     1  LIG1       -0.0470
     22  C15       -6.8060  -34.8630   22.7980 C.ar    1  LIG1        0.1463
     23 H          -8.9845  -36.9016   24.1943 H       1  LIG1        0.0830
     24 H          -9.5100  -37.3820   21.8648 H       1  LIG1        0.0633
     25 H          -8.2369  -36.2041   20.0690 H       1  LIG1        0.0627
     26 H          -4.9619  -33.1660   18.5955 H       1  LIG1        0.0457
     27 H          -3.4165  -33.8591   19.0247 H       1  LIG1        0.0457
     28 H          -3.9451  -32.3717   19.7738 H       1  LIG1        0.0457
     29 H          -2.2750  -34.6624   20.4772 H       1  LIG1        0.0639
     30 H          -0.8360  -35.2113   22.3848 H       1  LIG1        0.0641
     31 H          -4.0935  -34.6648   24.9755 H       1  LIG1        0.0662
     32 H          -5.7531  -33.1961   25.1075 H       1  LIG1        0.0490
     33 H          -7.1216  -32.5857   24.1283 H       1  LIG1        0.0490
     34 H          -4.3241  -31.6856   23.9681 H       1  LIG1        0.0247
     35 H          -5.6577  -30.8333   24.7086 H       1  LIG1        0.0247
     36 H          -5.6600  -31.1324   22.9871 H       1  LIG1        0.0247
@<TRIPOS>BOND
     1     1     2   ar
     2     1    22   ar
     3     2     3   ar
     4     3     4   ar
     5     4     5   ar
     6     5     6   ar
     7     5    22   ar
     8     6     7    2
     9     6     8   ar
    10     8     9    1
    11     8    10   ar
    12    10    11   ar
    13    10    18   ar
    14    11    12   ar
    15    12    13   ar
    16    13    14    1
    17    13    17   ar
    18    14    15    2
    19    14    16    2
    20    17    18   ar
    21    18    19   ar
    22    19    20    1
    23    19    22   ar
    24    20    21    1
    25     2    23    1
    26     3    24    1
    27     4    25    1
    28     9    26    1
    29     9    27    1
    30     9    28    1
    31    11    29    1
    32    12    30    1
    33    17    31    1
    34    20    32    1
    35    20    33    1
    36    21    34    1
    37    21    35    1
    38    21    36    1
