@<TRIPOS>MOLECULE
pose5.pdb
 36 38 0 0 0
SMALL
GASTEIGER

@<TRIPOS>ATOM
      1  N1        -2.5150  -33.8970   26.0840 N.ar    1  LIG1       -0.2371
      2  C1        -2.6590  -35.2040   25.6720 C.ar    1  LIG1        0.0299
      3  C2        -1.5520  -36.0600   25.5140 C.ar    1  LIG1       -0.0427
      4  C3        -0.2330  -35.5470   25.8050 C.ar    1  LIG1       -0.0444
      5  C4        -0.1040  -34.2260   26.2380 C.ar    1  LIG1        0.0819
      6  C5         1.2840  -33.6870   26.5770 C.ar    1  LIG1        0.2622
      7  O1         2.2270  -34.1350   25.9260 O.2     1  LIG1       -0.2669
      8  N2         1.4990  -32.7930   27.5800 N.ar    1  LIG1       -0.3092
      9  C6         2.8800  -32.2540   27.7460 C.3     1  LIG1        0.0153
     10  C7         0.5240  -32.1990   28.5100 C.ar    1  LIG1        0.0683
     11  C8         0.8770  -31.9140   29.8430 C.ar    1  LIG1       -0.0339
     12  C9        -0.0930  -31.4020   30.7560 C.ar    1  LIG1       -0.0294
     13  C10       -1.4120  -31.1730   30.3390 C.ar    1  LIG1        0.1283
     14  N3        -2.4830  -30.6550   31.3160 N.pl3   1  LIG1        0.0565
     15  O2        -2.2280  -30.5910   32.5190 O.2     1  LIG1       -0.1261
     16  O3        -3.5510  -30.3580   30.8470 O.2     1  LIG1       -0.1261
     17  C11       -1.7400  -31.4380   29.0080 C.ar    1  LIG1       -0.0059
     18  C12       -0.7740  -31.9330   28.1050 C.ar    1  LIG1        0.0694
     19  N4        -1.0390  -32.0890   26.7470 N.ar    1  LIG1       -0.3237
     20  C13       -1.7670  -30.9230   26.0260 C.3     1  LIG1        0.0224
     21  C14       -1.0220  -29.6550   25.9770 C.3     1  LIG1       -0.0470
     22  C15       -1.2600  -33.4270   26.3550 C.ar    1  LIG1        0.1463
     23 H          -3.6049  -35.5658   25.4736 H       1  LIG1        0.0830
     24 H          -1.6802  -37.0337   25.1969 H       1  LIG1        0.0633
     25 H           0.5995  -36.1468   25.6947 H       1  LIG1        0.0627
     26 H           3.5340  -32.7261   27.0430 H       1  LIG1        0.0457
     27 H           3.2228  -32.4513   28.7402 H       1  LIG1        0.0457
     28 H           2.8738  -31.1980   27.5739 H       1  LIG1        0.0457
     29 H           1.8448  -32.0767   30.1623 H       1  LIG1        0.0639
     30 H           0.1784  -31.1987   31.7307 H       1  LIG1        0.0641
     31 H          -2.7035  -31.2694   28.6791 H       1  LIG1        0.0662
     32 H          -2.6912  -30.7446   26.5348 H       1  LIG1        0.0490
     33 H          -1.8920  -31.2338   25.0098 H       1  LIG1        0.0490
     34 H          -0.8664  -29.2940   26.9722 H       1  LIG1        0.0247
     35 H          -1.5820  -28.9336   25.4194 H       1  LIG1        0.0247
     36 H          -0.0758  -29.8153   25.5038 H       1  LIG1        0.0247
@<TRIPOS>BOND
     1     1     2   ar
     2     1    22   ar
     3     2     3   ar
     4     3     4   ar
     5     4     5   ar
     6     5     6   ar
     7     5    22   ar
     8     6     7    2
     9     6     8   ar
    10     8     9    1
    11     8    10   ar
    12    10    11   ar
    13    10    18   ar
    14    11    12   ar
    15    12    13   ar
    16    13    14    1
    17    13    17   ar
    18    14    15    2
    19    14    16    2
    20    17    18   ar
    21    18    19   ar
    22    19    20    1
    23    19    22   ar
    24    20    21    1
    25     2    23    1
    26     3    24    1
    27     4    25    1
    28     9    26    1
    29     9    27    1
    30     9    28    1
    31    11    29    1
    32    12    30    1
    33    17    31    1
    34    20    32    1
    35    20    33    1
    36    21    34    1
    37    21    35    1
    38    21    36    1
