@<TRIPOS>MOLECULE
pose0.pdb
 36 38 0 0 0
SMALL
GASTEIGER

@<TRIPOS>ATOM
      1  N1        -4.1790  -34.8110   20.6450 N.ar    1  LIG1       -0.2371
      2  C1        -2.8440  -35.1510   20.6320 C.ar    1  LIG1        0.0299
      3  C2        -1.9360  -34.6400   21.5800 C.ar    1  LIG1       -0.0427
      4  C3        -2.4310  -33.7430   22.5980 C.ar    1  LIG1       -0.0444
      5  C4        -3.7900  -33.4210   22.6110 C.ar    1  LIG1        0.0819
      6  C5        -4.3260  -32.4970   23.7020 C.ar    1  LIG1        0.2622
      7  O1        -3.5610  -31.6260   24.1150 O.2     1  LIG1       -0.2669
      8  N2        -5.5650  -32.6430   24.2440 N.ar    1  LIG1       -0.3092
      9  C6        -6.0210  -31.6150   25.2240 C.3     1  LIG1        0.0153
     10  C7        -6.5900  -33.6560   23.9400 C.ar    1  LIG1        0.0683
     11  C8        -7.4350  -34.1540   24.9500 C.ar    1  LIG1       -0.0339
     12  C9        -8.3800  -35.1850   24.6610 C.ar    1  LIG1       -0.0294
     13  C10       -8.4820  -35.7160   23.3680 C.ar    1  LIG1        0.1283
     14  N3        -9.4670  -36.8520   23.0430 N.pl3   1  LIG1        0.0565
     15  O2        -9.3570  -37.4660   21.9800 O.2     1  LIG1       -0.1261
     16  O3       -10.3350  -37.0690   23.8490 O.2     1  LIG1       -0.1261
     17  C11       -7.6520  -35.1940   22.3730 C.ar    1  LIG1       -0.0059
     18  C12       -6.7280  -34.1660   22.6600 C.ar    1  LIG1        0.0694
     19  N4        -5.9790  -33.5430   21.6650 N.ar    1  LIG1       -0.3237
     20  C13       -6.7260  -33.1230   20.3700 C.3     1  LIG1        0.0224
     21  C14       -7.2440  -34.2340   19.5580 C.3     1  LIG1       -0.0470
     22  C15       -4.6310  -33.9600   21.6160 C.ar    1  LIG1        0.1463
     23 H          -2.4991  -35.7990   19.9066 H       1  LIG1        0.0830
     24 H          -0.9381  -34.9011   21.5478 H       1  LIG1        0.0633
     25 H          -1.7912  -33.3466   23.3041 H       1  LIG1        0.0627
     26 H          -5.2318  -30.9139   25.3986 H       1  LIG1        0.0457
     27 H          -6.2844  -32.0921   26.1448 H       1  LIG1        0.0457
     28 H          -6.8738  -31.1016   24.8315 H       1  LIG1        0.0457
     29 H          -7.3710  -33.7712   25.9062 H       1  LIG1        0.0639
     30 H          -8.9929  -35.5420   25.4106 H       1  LIG1        0.0641
     31 H          -7.7153  -35.5659   21.4124 H       1  LIG1        0.0662
     32 H          -6.0476  -32.5588   19.7647 H       1  LIG1        0.0490
     33 H          -7.5810  -32.5639   20.6883 H       1  LIG1        0.0490
     34 H          -6.4279  -34.8319   19.2096 H       1  LIG1        0.0247
     35 H          -7.7826  -33.8427   18.7203 H       1  LIG1        0.0247
     36 H          -7.8985  -34.8359   20.1532 H       1  LIG1        0.0247
@<TRIPOS>BOND
     1     1     2   ar
     2     1    22   ar
     3     2     3   ar
     4     3     4   ar
     5     4     5   ar
     6     5     6   ar
     7     5    22   ar
     8     6     7    2
     9     6     8   ar
    10     8     9    1
    11     8    10   ar
    12    10    11   ar
    13    10    18   ar
    14    11    12   ar
    15    12    13   ar
    16    13    14    1
    17    13    17   ar
    18    14    15    2
    19    14    16    2
    20    17    18   ar
    21    18    19   ar
    22    19    20    1
    23    19    22   ar
    24    20    21    1
    25     2    23    1
    26     3    24    1
    27     4    25    1
    28     9    26    1
    29     9    27    1
    30     9    28    1
    31    11    29    1
    32    12    30    1
    33    17    31    1
    34    20    32    1
    35    20    33    1
    36    21    34    1
    37    21    35    1
    38    21    36    1
