@<TRIPOS>MOLECULE
pose3.pdb
 36 38 0 0 0
SMALL
GASTEIGER

@<TRIPOS>ATOM
      1  N1        -7.7150  -35.2500   23.5120 N.ar    1  LIG1       -0.2371
      2  C1        -8.5140  -36.1880   22.8970 C.ar    1  LIG1        0.0299
      3  C2        -8.4170  -36.4590   21.5180 C.ar    1  LIG1       -0.0427
      4  C3        -7.4410  -35.7340   20.7370 C.ar    1  LIG1       -0.0444
      5  C4        -6.6260  -34.7980   21.3780 C.ar    1  LIG1        0.0819
      6  C5        -5.5710  -34.0500   20.5650 C.ar    1  LIG1        0.2622
      7  O1        -5.8440  -33.8120   19.3890 O.2     1  LIG1       -0.2669
      8  N2        -4.3610  -33.7000   21.0790 N.ar    1  LIG1       -0.3092
      9  C6        -3.4570  -32.8760   20.2260 C.3     1  LIG1        0.0153
     10  C7        -3.8230  -33.9550   22.4250 C.ar    1  LIG1        0.0683
     11  C8        -2.4530  -34.2130   22.6190 C.ar    1  LIG1       -0.0339
     12  C9        -1.9510  -34.5270   23.9180 C.ar    1  LIG1       -0.0294
     13  C10       -2.8140  -34.5820   25.0210 C.ar    1  LIG1        0.1283
     14  N3        -2.3000  -34.9530   26.4230 N.pl3   1  LIG1        0.0565
     15  O2        -2.9210  -34.5730   27.4180 O.2     1  LIG1       -0.1261
     16  O3        -1.2780  -35.5860   26.4810 O.2     1  LIG1       -0.1261
     17  C11       -4.1660  -34.3000   24.8160 C.ar    1  LIG1       -0.0059
     18  C12       -4.6560  -33.9780   23.5320 C.ar    1  LIG1        0.0694
     19  N4        -5.9720  -33.5730   23.3200 N.ar    1  LIG1       -0.3237
     20  C13       -6.5580  -32.5190   24.2980 C.3     1  LIG1        0.0224
     21  C14       -6.7710  -32.9940   25.6740 C.3     1  LIG1       -0.0470
     22  C15       -6.7960  -34.5720   22.7590 C.ar    1  LIG1        0.1463
     23 H          -9.2036  -36.7073   23.4626 H       1  LIG1        0.0830
     24 H          -9.0303  -37.1608   21.0747 H       1  LIG1        0.0633
     25 H          -7.3477  -35.9047   19.7235 H       1  LIG1        0.0627
     26 H          -3.9073  -32.7298   19.2665 H       1  LIG1        0.0457
     27 H          -2.5208  -33.3803   20.1075 H       1  LIG1        0.0457
     28 H          -3.2942  -31.9267   20.6920 H       1  LIG1        0.0457
     29 H          -1.8062  -34.1749   21.8157 H       1  LIG1        0.0639
     30 H          -0.9444  -34.7150   24.0459 H       1  LIG1        0.0641
     31 H          -4.8174  -34.3274   25.6160 H       1  LIG1        0.0662
     32 H          -7.5009  -32.1948   23.9097 H       1  LIG1        0.0490
     33 H          -5.8314  -31.7362   24.3624 H       1  LIG1        0.0490
     34 H          -7.4936  -33.7832   25.6711 H       1  LIG1        0.0247
     35 H          -7.1272  -32.1865   26.2789 H       1  LIG1        0.0247
     36 H          -5.8471  -33.3578   26.0728 H       1  LIG1        0.0247
@<TRIPOS>BOND
     1     1     2   ar
     2     1    22   ar
     3     2     3   ar
     4     3     4   ar
     5     4     5   ar
     6     5     6   ar
     7     5    22   ar
     8     6     7    2
     9     6     8   ar
    10     8     9    1
    11     8    10   ar
    12    10    11   ar
    13    10    18   ar
    14    11    12   ar
    15    12    13   ar
    16    13    14    1
    17    13    17   ar
    18    14    15    2
    19    14    16    2
    20    17    18   ar
    21    18    19   ar
    22    19    20    1
    23    19    22   ar
    24    20    21    1
    25     2    23    1
    26     3    24    1
    27     4    25    1
    28     9    26    1
    29     9    27    1
    30     9    28    1
    31    11    29    1
    32    12    30    1
    33    17    31    1
    34    20    32    1
    35    20    33    1
    36    21    34    1
    37    21    35    1
    38    21    36    1
