@<TRIPOS>MOLECULE
pose6.pdb
 36 38 0 0 0
SMALL
GASTEIGER

@<TRIPOS>ATOM
      1  N1        -7.9560  -34.3080   24.9720 N.ar    1  LIG1       -0.2371
      2  C1        -8.7140  -35.4520   24.8400 C.ar    1  LIG1        0.0299
      3  C2        -8.6500  -36.2560   23.6860 C.ar    1  LIG1       -0.0427
      4  C3        -7.7530  -35.8700   22.6210 C.ar    1  LIG1       -0.0444
      5  C4        -6.9790  -34.7180   22.7760 C.ar    1  LIG1        0.0819
      6  C5        -6.0070  -34.3190   21.6680 C.ar    1  LIG1        0.2622
      7  O1        -6.3380  -34.5950   20.5150 O.2     1  LIG1       -0.2669
      8  N2        -4.8040  -33.7360   21.9210 N.ar    1  LIG1       -0.3092
      9  C6        -3.9880  -33.2910   20.7550 C.3     1  LIG1        0.0153
     10  C7        -4.2010  -33.3950   23.2210 C.ar    1  LIG1        0.0683
     11  C8        -2.8110  -33.4880   23.4190 C.ar    1  LIG1       -0.0339
     12  C9        -2.2410  -33.2210   24.7010 C.ar    1  LIG1       -0.0294
     13  C10       -3.0580  -32.8600   25.7810 C.ar    1  LIG1        0.1283
     14  N3        -2.4700  -32.6030   27.1800 N.pl3   1  LIG1        0.0565
     15  O2        -3.1370  -31.9920   28.0160 O.2     1  LIG1       -0.1261
     16  O3        -1.3500  -32.9960   27.3820 O.2     1  LIG1       -0.1261
     17  C11       -4.4320  -32.7490   25.5620 C.ar    1  LIG1       -0.0059
     18  C12       -4.9900  -33.0020   24.2900 C.ar    1  LIG1        0.0694
     19  N4        -6.3370  -32.7790   24.0120 N.ar    1  LIG1       -0.3237
     20  C13       -6.9540  -31.4450   24.5130 C.3     1  LIG1        0.0224
     21  C14       -7.7710  -31.5530   25.7320 C.3     1  LIG1       -0.0470
     22  C15       -7.1130  -33.9560   23.9550 C.ar    1  LIG1        0.1463
     23 H          -9.3458  -35.7266   25.6084 H       1  LIG1        0.0830
     24 H          -9.2321  -37.1041   23.6024 H       1  LIG1        0.0633
     25 H          -7.6855  -36.4359   21.7606 H       1  LIG1        0.0627
     26 H          -4.4815  -33.5692   19.8473 H       1  LIG1        0.0457
     27 H          -3.0254  -33.7566   20.7948 H       1  LIG1        0.0457
     28 H          -3.8715  -32.2278   20.7862 H       1  LIG1        0.0457
     29 H          -2.1984  -33.7513   22.6314 H       1  LIG1        0.0639
     30 H          -1.2201  -33.2944   24.8331 H       1  LIG1        0.0641
     31 H          -5.0501  -32.4776   26.3426 H       1  LIG1        0.0662
     32 H          -7.5728  -31.0527   23.7332 H       1  LIG1        0.0490
     33 H          -6.1291  -30.8110   24.7629 H       1  LIG1        0.0490
     34 H          -8.6165  -32.1801   25.5403 H       1  LIG1        0.0247
     35 H          -8.1074  -30.5799   26.0233 H       1  LIG1        0.0247
     36 H          -7.1832  -31.9776   26.5189 H       1  LIG1        0.0247
@<TRIPOS>BOND
     1     1     2   ar
     2     1    22   ar
     3     2     3   ar
     4     3     4   ar
     5     4     5   ar
     6     5     6   ar
     7     5    22   ar
     8     6     7    2
     9     6     8   ar
    10     8     9    1
    11     8    10   ar
    12    10    11   ar
    13    10    18   ar
    14    11    12   ar
    15    12    13   ar
    16    13    14    1
    17    13    17   ar
    18    14    15    2
    19    14    16    2
    20    17    18   ar
    21    18    19   ar
    22    19    20    1
    23    19    22   ar
    24    20    21    1
    25     2    23    1
    26     3    24    1
    27     4    25    1
    28     9    26    1
    29     9    27    1
    30     9    28    1
    31    11    29    1
    32    12    30    1
    33    17    31    1
    34    20    32    1
    35    20    33    1
    36    21    34    1
    37    21    35    1
    38    21    36    1
