REMARK  2 active torsions:
REMARK  status: ('A' for Active; 'I' for Inactive)
REMARK    1  A    between atoms: C9_14  and  N_15 
REMARK    2  A    between atoms: N11_20  and  C14_21 
ROOT
HETATM    1  N1  U05 A 999      -2.534 -34.978  22.828  1.00 23.96    -0.351 N 
ATOM      2  H1  U05 A 999      -2.150 -35.871  22.522  1.00  0.00     0.166 HD
HETATM    3  C2  U05 A 999      -3.350 -34.243  21.995  1.00 21.05     0.090 A 
HETATM    4  C3  U05 A 999      -3.904 -33.011  22.395  1.00 20.15     0.018 A 
HETATM    5  C4  U05 A 999      -3.593 -32.507  23.712  1.00 20.83     0.022 A 
HETATM    6  C4A U05 A 999      -2.751 -33.254  24.539  1.00 18.14     0.076 A 
HETATM    7  C5  U05 A 999      -2.394 -32.713  25.922  1.00 25.90     0.261 C 
HETATM    8  O13 U05 A 999      -3.252 -32.042  26.492  1.00 36.44    -0.267 OA
HETATM    9  N6  U05 A 999      -1.174 -32.906  26.492  1.00 40.51    -0.316 N 
HETATM   10  C12 U05 A 999      -0.978 -32.427  27.891  1.00 27.73     0.159 C 
HETATM   11  C6A U05 A 999      -0.003 -33.612  25.946  1.00 45.24     0.064 A 
HETATM   12  C7  U05 A 999       1.304 -33.168  26.227  1.00 37.08     0.034 A 
HETATM   13  C8  U05 A 999       2.431 -33.816  25.639  1.00 40.37     0.038 A 
HETATM   14  C9  U05 A 999       2.256 -34.905  24.774  1.00 43.65     0.105 A 
HETATM   15  C10 U05 A 999       0.956 -35.347  24.524  1.00 42.74     0.068 A 
HETATM   16  C11 U05 A 999      -0.156 -34.711  25.118  1.00 43.94     0.065 A 
HETATM   17  N11 U05 A 999      -1.452 -35.207  24.987  1.00 39.27    -0.331 N 
HETATM   18  C1A U05 A 999      -2.251 -34.487  24.072  1.00 29.92     0.123 A 
ENDROOT
BRANCH  14  19
HETATM   19  N   U05 A 999       3.455 -35.595  24.101  1.00 50.45    -0.116 N 
HETATM   20  O1  U05 A 999       3.518 -36.826  24.085  1.00 51.64    -0.532 OA
HETATM   21  O2  U05 A 999       4.307 -34.881  23.637  1.00 58.57    -0.532 OA
ENDBRANCH  14  19
BRANCH  17  22
HETATM   22  C14 U05 A 999      -1.653 -36.733  25.184  1.00 34.82     0.126 C 
HETATM   23  C15 U05 A 999      -1.205 -37.574  24.063  1.00 41.53     0.027 C 
ENDBRANCH  17  22
TORSDOF 2
