REMARK  2 active torsions:
REMARK  status: ('A' for Active; 'I' for Inactive)
REMARK    1  A    between atoms: C9_14  and  N_15 
REMARK    2  A    between atoms: N11_20  and  C14_21 
ROOT
HETATM    1  N1  U05 A 999      -2.523 -34.945  22.835  1.00 23.96    -0.351 N 
ATOM      2  H1  U05 A 999      -2.139 -35.838  22.527  1.00  0.00     0.166 HD
HETATM    3  C2  U05 A 999      -3.331 -34.202  22.001  1.00 21.05     0.090 A 
HETATM    4  C3  U05 A 999      -3.882 -32.971  22.404  1.00 20.15     0.018 A 
HETATM    5  C4  U05 A 999      -3.577 -32.475  23.726  1.00 20.83     0.022 A 
HETATM    6  C4A U05 A 999      -2.743 -33.229  24.554  1.00 18.14     0.076 A 
HETATM    7  C5  U05 A 999      -2.393 -32.697  25.942  1.00 25.90     0.261 C 
HETATM    8  O13 U05 A 999      -3.252 -32.026  26.511  1.00 36.44    -0.267 OA
HETATM    9  N6  U05 A 999      -1.177 -32.898  26.519  1.00 40.51    -0.316 N 
HETATM   10  C12 U05 A 999      -0.987 -32.427  27.921  1.00 27.73     0.159 C 
HETATM   11  C6A U05 A 999      -0.005 -33.605  25.976  1.00 45.24     0.064 A 
HETATM   12  C7  U05 A 999       1.301 -33.168  26.267  1.00 37.08     0.034 A 
HETATM   13  C8  U05 A 999       2.430 -33.817  25.682  1.00 40.37     0.038 A 
HETATM   14  C9  U05 A 999       2.256 -34.900  24.810  1.00 43.65     0.105 A 
HETATM   15  C10 U05 A 999       0.956 -35.337  24.551  1.00 42.74     0.068 A 
HETATM   16  C11 U05 A 999      -0.158 -34.699  25.141  1.00 43.94     0.065 A 
HETATM   17  N11 U05 A 999      -1.454 -35.189  24.999  1.00 39.27    -0.331 N 
HETATM   18  C1A U05 A 999      -2.245 -34.462  24.083  1.00 29.92     0.123 A 
ENDROOT
BRANCH  14  19
HETATM   19  N   U05 A 999       3.457 -35.592  24.141  1.00 50.45    -0.116 N 
HETATM   20  O1  U05 A 999       3.522 -36.822  24.131  1.00 51.64    -0.532 OA
HETATM   21  O2  U05 A 999       4.307 -34.879  23.673  1.00 58.57    -0.532 OA
ENDBRANCH  14  19
BRANCH  17  22
HETATM   22  C14 U05 A 999      -1.662 -36.716  25.187  1.00 34.82     0.126 C 
HETATM   23  C15 U05 A 999      -1.202 -37.553  24.068  1.00 41.53     0.027 C 
ENDBRANCH  17  22
TORSDOF 2
