REMARK  2 active torsions:
REMARK  status: ('A' for Active; 'I' for Inactive)
REMARK    1  A    between atoms: C9_14  and  N_15 
REMARK    2  A    between atoms: N11_20  and  C14_21 
ROOT
HETATM    1  N1  U05 A 999      -2.492 -34.971  22.750  1.00 23.96    -0.351 N 
ATOM      2  H1  U05 A 999      -2.045 -35.848  22.483  1.00  0.00     0.166 HD
HETATM    3  C2  U05 A 999      -3.282 -34.284  21.854  1.00 21.05     0.090 A 
HETATM    4  C3  U05 A 999      -3.919 -33.077  22.198  1.00 20.15     0.018 A 
HETATM    5  C4  U05 A 999      -3.724 -32.545  23.528  1.00 20.83     0.022 A 
HETATM    6  C4A U05 A 999      -2.906 -33.243  24.419  1.00 18.14     0.076 A 
HETATM    7  C5  U05 A 999      -2.671 -32.672  25.816  1.00 25.90     0.261 C 
HETATM    8  O13 U05 A 999      -3.597 -32.037  26.318  1.00 36.44    -0.267 OA
HETATM    9  N6  U05 A 999      -1.485 -32.801  26.471  1.00 40.51    -0.316 N 
HETATM   10  C12 U05 A 999      -1.408 -32.299  27.873  1.00 27.73     0.159 C 
HETATM   11  C6A U05 A 999      -0.247 -33.455  26.015  1.00 45.24     0.064 A 
HETATM   12  C7  U05 A 999       1.015 -32.946  26.379  1.00 37.08     0.034 A 
HETATM   13  C8  U05 A 999       2.209 -33.545  25.877  1.00 40.37     0.038 A 
HETATM   14  C9  U05 A 999       2.145 -34.650  25.016  1.00 43.65     0.105 A 
HETATM   15  C10 U05 A 999       0.887 -35.157  24.685  1.00 42.74     0.068 A 
HETATM   16  C11 U05 A 999      -0.292 -34.569  25.193  1.00 43.94     0.065 A 
HETATM   17  N11 U05 A 999      -1.550 -35.127  24.980  1.00 39.27    -0.331 N 
HETATM   18  C1A U05 A 999      -2.317 -34.455  24.004  1.00 29.92     0.123 A 
ENDROOT
BRANCH  14  19
HETATM   19  N   U05 A 999       3.419 -35.289  24.436  1.00 50.45    -0.116 N 
HETATM   20  O1  U05 A 999       3.498 -36.516  24.348  1.00 51.64    -0.532 OA
HETATM   21  O2  U05 A 999       4.307 -34.542  24.114  1.00 58.57    -0.532 OA
ENDBRANCH  14  19
BRANCH  17  22
HETATM   22  C14 U05 A 999      -1.693 -36.659  25.184  1.00 34.82     0.126 C 
HETATM   23  C15 U05 A 999      -1.133 -37.488  24.105  1.00 41.53     0.027 C 
ENDBRANCH  17  22
TORSDOF 2
