REMARK  2 active torsions:
REMARK  status: ('A' for Active; 'I' for Inactive)
REMARK    1  A    between atoms: C9_14  and  N_15 
REMARK    2  A    between atoms: N11_20  and  C14_21 
ROOT
HETATM    1  N1  U05 A 999      -2.502 -34.968  22.759  1.00 23.96    -0.351 N 
ATOM      2  H1  U05 A 999      -2.058 -35.846  22.489  1.00  0.00     0.166 HD
HETATM    3  C2  U05 A 999      -3.295 -34.279  21.867  1.00 21.05     0.090 A 
HETATM    4  C3  U05 A 999      -3.929 -33.071  22.216  1.00 20.15     0.018 A 
HETATM    5  C4  U05 A 999      -3.726 -32.541  23.544  1.00 20.83     0.022 A 
HETATM    6  C4A U05 A 999      -2.905 -33.241  24.431  1.00 18.14     0.076 A 
HETATM    7  C5  U05 A 999      -2.662 -32.671  25.827  1.00 25.90     0.261 C 
HETATM    8  O13 U05 A 999      -3.585 -32.035  26.334  1.00 36.44    -0.267 OA
HETATM    9  N6  U05 A 999      -1.474 -32.802  26.476  1.00 40.51    -0.316 N 
HETATM   10  C12 U05 A 999      -1.389 -32.302  27.878  1.00 27.73     0.159 C 
HETATM   11  C6A U05 A 999      -0.239 -33.458  26.014  1.00 45.24     0.064 A 
HETATM   12  C7  U05 A 999       1.026 -32.952  26.372  1.00 37.08     0.034 A 
HETATM   13  C8  U05 A 999       2.217 -33.552  25.864  1.00 40.37     0.038 A 
HETATM   14  C9  U05 A 999       2.147 -34.656  25.002  1.00 43.65     0.105 A 
HETATM   15  C10 U05 A 999       0.886 -35.160  24.677  1.00 42.74     0.068 A 
HETATM   16  C11 U05 A 999      -0.289 -34.571  25.191  1.00 43.94     0.065 A 
HETATM   17  N11 U05 A 999      -1.550 -35.127  24.984  1.00 39.27    -0.331 N 
HETATM   18  C1A U05 A 999      -2.320 -34.453  24.012  1.00 29.92     0.123 A 
ENDROOT
BRANCH  14  19
HETATM   19  N   U05 A 999       3.417 -35.297  24.415  1.00 50.45    -0.116 N 
HETATM   20  O1  U05 A 999       4.306 -34.576  23.959  1.00 51.64    -0.532 OA
HETATM   21  O2  U05 A 999       3.467 -36.500  24.405  1.00 58.57    -0.532 OA
ENDBRANCH  14  19
BRANCH  17  22
HETATM   22  C14 U05 A 999      -1.693 -36.659  25.187  1.00 34.82     0.126 C 
HETATM   23  C15 U05 A 999      -1.132 -37.488  24.109  1.00 41.53     0.027 C 
ENDBRANCH  17  22
TORSDOF 2
