REMARK  2 active torsions:
REMARK  status: ('A' for Active; 'I' for Inactive)
REMARK    1  A    between atoms: C9_14  and  N_15 
REMARK    2  A    between atoms: N11_20  and  C14_21 
ROOT
HETATM    1  N1  U05 A 999      -2.540 -34.937  22.721  1.00 23.96    -0.351 N 
ATOM      2  H1  U05 A 999      -2.089 -35.810  22.449  1.00  0.00     0.166 HD
HETATM    3  C2  U05 A 999      -3.326 -34.244  21.826  1.00 21.05     0.090 A 
HETATM    4  C3  U05 A 999      -3.969 -33.041  22.177  1.00 20.15     0.018 A 
HETATM    5  C4  U05 A 999      -3.784 -32.521  23.512  1.00 20.83     0.022 A 
HETATM    6  C4A U05 A 999      -2.970 -33.225  24.403  1.00 18.14     0.076 A 
HETATM    7  C5  U05 A 999      -2.746 -32.666  25.806  1.00 25.90     0.261 C 
HETATM    8  O13 U05 A 999      -3.677 -32.038  26.308  1.00 36.44    -0.267 OA
HETATM    9  N6  U05 A 999      -1.564 -32.798  26.468  1.00 40.51    -0.316 N 
HETATM   10  C12 U05 A 999      -1.498 -32.308  27.875  1.00 27.73     0.159 C 
HETATM   11  C6A U05 A 999      -0.321 -33.444  26.015  1.00 45.24     0.064 A 
HETATM   12  C7  U05 A 999       0.936 -32.935  26.391  1.00 37.08     0.034 A 
HETATM   13  C8  U05 A 999       2.136 -33.526  25.892  1.00 40.37     0.038 A 
HETATM   14  C9  U05 A 999       2.081 -34.623  25.021  1.00 43.65     0.105 A 
HETATM   15  C10 U05 A 999       0.827 -35.130  24.676  1.00 42.74     0.068 A 
HETATM   16  C11 U05 A 999      -0.357 -34.550  25.182  1.00 43.94     0.065 A 
HETATM   17  N11 U05 A 999      -1.613 -35.110  24.956  1.00 39.27    -0.331 N 
HETATM   18  C1A U05 A 999      -2.375 -34.432  23.980  1.00 29.92     0.123 A 
ENDROOT
BRANCH  14  19
HETATM   19  N   U05 A 999       3.360 -35.253  24.443  1.00 50.45    -0.116 N 
HETATM   20  O1  U05 A 999       3.386 -36.460  24.197  1.00 51.64    -0.532 OA
HETATM   21  O2  U05 A 999       4.304 -34.523  24.283  1.00 58.57    -0.532 OA
ENDBRANCH  14  19
BRANCH  17  22
HETATM   22  C14 U05 A 999      -1.752 -36.645  25.144  1.00 34.82     0.126 C 
HETATM   23  C15 U05 A 999      -1.184 -37.462  24.061  1.00 41.53     0.027 C 
ENDBRANCH  17  22
TORSDOF 2
