REMARK  2 active torsions:
REMARK  status: ('A' for Active; 'I' for Inactive)
REMARK    1  A    between atoms: C9_14  and  N_15 
REMARK    2  A    between atoms: N11_20  and  C14_21 
ROOT
HETATM    1  N1  U05 A 999      -2.455 -34.975  22.699  1.00 23.96    -0.351 N 
ATOM      2  H1  U05 A 999      -2.007 -35.846  22.416  1.00  0.00     0.166 HD
HETATM    3  C2  U05 A 999      -3.247 -34.273  21.815  1.00 21.05     0.090 A 
HETATM    4  C3  U05 A 999      -3.886 -33.073  22.182  1.00 20.15     0.018 A 
HETATM    5  C4  U05 A 999      -3.693 -32.566  23.521  1.00 20.83     0.022 A 
HETATM    6  C4A U05 A 999      -2.874 -33.279  24.400  1.00 18.14     0.076 A 
HETATM    7  C5  U05 A 999      -2.641 -32.733  25.807  1.00 25.90     0.261 C 
HETATM    8  O13 U05 A 999      -3.569 -32.109  26.320  1.00 36.44    -0.267 OA
HETATM    9  N6  U05 A 999      -1.456 -32.872  26.460  1.00 40.51    -0.316 N 
HETATM   10  C12 U05 A 999      -1.380 -32.396  27.872  1.00 27.73     0.159 C 
HETATM   11  C6A U05 A 999      -0.216 -33.515  25.993  1.00 45.24     0.064 A 
HETATM   12  C7  U05 A 999       1.044 -33.011  26.367  1.00 37.08     0.034 A 
HETATM   13  C8  U05 A 999       2.241 -33.598  25.855  1.00 40.37     0.038 A 
HETATM   14  C9  U05 A 999       2.179 -34.687  24.974  1.00 43.65     0.105 A 
HETATM   15  C10 U05 A 999       0.923 -35.190  24.633  1.00 42.74     0.068 A 
HETATM   16  C11 U05 A 999      -0.258 -34.613  25.151  1.00 43.94     0.065 A 
HETATM   17  N11 U05 A 999      -1.515 -35.170  24.927  1.00 39.27    -0.331 N 
HETATM   18  C1A U05 A 999      -2.283 -34.482  23.962  1.00 29.92     0.123 A 
ENDROOT
BRANCH  14  19
HETATM   19  N   U05 A 999       3.455 -35.313  24.383  1.00 50.45    -0.116 N 
HETATM   20  O1  U05 A 999       4.301 -34.586  23.860  1.00 51.64    -0.532 OA
HETATM   21  O2  U05 A 999       3.550 -36.512  24.437  1.00 58.57    -0.532 OA
ENDBRANCH  14  19
BRANCH  17  22
HETATM   22  C14 U05 A 999      -1.655 -36.706  25.101  1.00 34.82     0.126 C 
HETATM   23  C15 U05 A 999      -1.111 -37.513  23.998  1.00 41.53     0.027 C 
ENDBRANCH  17  22
TORSDOF 2
