REMARK  2 active torsions:
REMARK  status: ('A' for Active; 'I' for Inactive)
REMARK    1  A    between atoms: C9_14  and  N_15 
REMARK    2  A    between atoms: N11_20  and  C14_21 
ROOT
HETATM    1  N1  U05 A 999      -2.437 -34.899  22.708  1.00 23.96    -0.351 N 
ATOM      2  H1  U05 A 999      -1.990 -35.770  22.425  1.00  0.00     0.166 HD
HETATM    3  C2  U05 A 999      -3.218 -34.189  21.821  1.00 21.05     0.090 A 
HETATM    4  C3  U05 A 999      -3.856 -32.989  22.188  1.00 20.15     0.018 A 
HETATM    5  C4  U05 A 999      -3.671 -32.488  23.531  1.00 20.83     0.022 A 
HETATM    6  C4A U05 A 999      -2.863 -33.209  24.413  1.00 18.14     0.076 A 
HETATM    7  C5  U05 A 999      -2.638 -32.671  25.825  1.00 25.90     0.261 C 
HETATM    8  O13 U05 A 999      -3.567 -32.045  26.333  1.00 36.44    -0.267 OA
HETATM    9  N6  U05 A 999      -1.459 -32.817  26.487  1.00 40.51    -0.316 N 
HETATM   10  C12 U05 A 999      -1.393 -32.348  27.901  1.00 27.73     0.159 C 
HETATM   11  C6A U05 A 999      -0.218 -33.463  26.027  1.00 45.24     0.064 A 
HETATM   12  C7  U05 A 999       1.041 -32.966  26.413  1.00 37.08     0.034 A 
HETATM   13  C8  U05 A 999       2.239 -33.556  25.908  1.00 40.37     0.038 A 
HETATM   14  C9  U05 A 999       2.181 -34.640  25.021  1.00 43.65     0.105 A 
HETATM   15  C10 U05 A 999       0.925 -35.136  24.667  1.00 42.74     0.068 A 
HETATM   16  C11 U05 A 999      -0.258 -34.557  25.179  1.00 43.94     0.065 A 
HETATM   17  N11 U05 A 999      -1.515 -35.108  24.942  1.00 39.27    -0.331 N 
HETATM   18  C1A U05 A 999      -2.273 -34.412  23.975  1.00 29.92     0.123 A 
ENDROOT
BRANCH  14  19
HETATM   19  N   U05 A 999       3.458 -35.268  24.437  1.00 50.45    -0.116 N 
HETATM   20  O1  U05 A 999       3.581 -36.494  24.423  1.00 51.64    -0.532 OA
HETATM   21  O2  U05 A 999       4.306 -34.512  24.039  1.00 58.57    -0.532 OA
ENDBRANCH  14  19
BRANCH  17  22
HETATM   22  C14 U05 A 999      -1.663 -36.644  25.109  1.00 34.82     0.126 C 
HETATM   23  C15 U05 A 999      -1.088 -37.449  24.020  1.00 41.53     0.027 C 
ENDBRANCH  17  22
TORSDOF 2
