U05.pdb
  rDOCK(R)          3D
libRbt.so/2013.1/901 2013/11/27
 22 24  0  0  0  0  0  0  0  0999 V2000
   -1.1750  -32.9632   25.9417 N   0  0  0  0  0  0
   -1.7552  -31.9357   26.6539 C   0  0  0  0  0  0
   -1.0953  -31.3118   27.7301 C   0  0  0  0  0  0
    0.2318  -31.7609   28.0828 C   0  0  0  0  0  0
    0.8141  -32.7911   27.3415 C   0  0  0  0  0  0
    2.2282  -33.2511   27.6895 C   0  0  0  0  0  0
    2.5559  -33.1874   28.8736 O   0  0  0  0  0  0
    3.1180  -33.6645   26.7468 N   0  0  0  0  0  0
    4.4308  -34.1945   27.2156 C   0  0  0  0  0  0
    2.9437  -33.7434   25.2868 C   0  0  0  0  0  0
    4.0179  -33.4801   24.4156 C   0  0  0  0  0  0
    3.8236  -33.4917   23.0014 C   0  0  0  0  0  0
    2.5612  -33.7670   22.4578 C   0  0  0  0  0  0
    2.3213  -33.7497   20.9382 N   0  0  0  0  0  0
    1.2277  -34.0999   20.4915 O   0  0  0  0  0  0
    3.2454  -33.4139   20.2432 O   0  0  0  0  0  0
    1.5122  -34.0493   23.3349 C   0  0  0  0  0  0
    1.7115  -34.0487   24.7329 C   0  0  0  0  0  0
    0.7174  -34.4471   25.6240 N   0  0  0  0  0  0
   -0.0629  -35.7457   25.2851 C   0  0  0  0  0  0
   -1.1725  -35.5785   24.3339 C   0  0  0  0  0  0
    0.0811  -33.3766   26.2887 C   0  0  0  0  0  0
  1  2  2  0  0  0
  1 22  1  0  0  0
  2  3  1  0  0  0
  3  4  2  0  0  0
  4  5  1  0  0  0
  5  6  1  0  0  0
  5 22  2  0  0  0
  6  7  2  0  0  0
  6  8  1  0  0  0
  8  9  1  0  0  0
  8 10  1  0  0  0
 10 11  2  0  0  0
 10 18  1  0  0  0
 11 12  1  0  0  0
 12 13  2  0  0  0
 13 14  1  0  0  0
 13 17  1  0  0  0
 14 15  2  0  0  0
 14 16  2  0  0  0
 17 18  2  0  0  0
 18 19  1  0  0  0
 19 20  1  0  0  0
 19 22  1  0  0  0
 20 21  1  0  0  0
M  END
>  <CHROM.0>
179.89511019,-160.61865142

>  <CHROM.1>
174.24966245,-82.65515935,1.48245868,-33.57704709,25.06047898,1.86539619
-0.04838809,1.40647431

>  <FORMUL>
      U05    C15 H14 N4 O3

>  <HET>
 U05  A 999      22

>  <HETNAM>
     U05 6,11-DIHYDRO-11-ETHYL-6-METHYL-9-NITRO-5H-PYRIDO[2,3-B]
   2 U05 [1,5]BENZODIAZEPIN-5-ONE

>  <HETSYN>
     U05 1051U91

>  <Name>
U05.pdb

>  <RI>
0

>  <Rbt.Current_Directory>
/home/malgorzata/Desktop/rDOCK_IFD/test10/IFD

>  <Rbt.Executable>
rbdock ($Id: //depot/dev/client3/rdock/2013.1/src/exe/rbdock.cxx#4 $)

>  <Rbt.Library>
libRbt.so (2013.1, Build901 2013/11/27)

>  <Rbt.Parameter_File>
/home/malgorzata/Desktop/rDock_2013.1_src/data/scripts/hard_docking.prm

>  <Rbt.Receptor>
cavity.prm

>  <SCORE>
0.35258

>  <SCORE.INTER>
-4.26645

>  <SCORE.INTER.CONST>
1

>  <SCORE.INTER.POLAR>
0

>  <SCORE.INTER.REPUL>
0

>  <SCORE.INTER.ROT>
2

>  <SCORE.INTER.VDW>
-11.6664

>  <SCORE.INTER.norm>
-0.193929

>  <SCORE.INTRA>
-1.06546

>  <SCORE.INTRA.DIHEDRAL>
-0.84885

>  <SCORE.INTRA.DIHEDRAL.0>
1.34757

>  <SCORE.INTRA.POLAR>
0

>  <SCORE.INTRA.POLAR.0>
0

>  <SCORE.INTRA.REPUL>
0

>  <SCORE.INTRA.REPUL.0>
0

>  <SCORE.INTRA.VDW>
-0.641031

>  <SCORE.INTRA.VDW.0>
0.605696

>  <SCORE.INTRA.norm>
-0.0484298

>  <SCORE.RESTR>
2.16933

>  <SCORE.RESTR.CAVITY>
2.16933

>  <SCORE.RESTR.norm>
0.0986059

>  <SCORE.SYSTEM>
3.51515

>  <SCORE.SYSTEM.CONST>
0

>  <SCORE.SYSTEM.DIHEDRAL>
0.512119

>  <SCORE.SYSTEM.VDW>
3.2591

>  <SCORE.SYSTEM.norm>
0.15978

>  <SCORE.heavy>
22

>  <SCORE.norm>
0.0160264

$$$$
U05.pdb
  rDOCK(R)          3D
libRbt.so/2013.1/901 2013/11/27
 22 24  0  0  0  0  0  0  0  0999 V2000
   -0.6877  -32.1014   27.7217 N   0  0  0  0  0  0
   -1.7475  -31.2470   27.9376 C   0  0  0  0  0  0
   -2.1098  -30.2604   27.0005 C   0  0  0  0  0  0
   -1.3501  -30.1560   25.7760 C   0  0  0  0  0  0
   -0.2900  -31.0396   25.5630 C   0  0  0  0  0  0
    0.4989  -30.9547   24.2581 C   0  0  0  0  0  0
    0.6178  -29.8388   23.7541 O   0  0  0  0  0  0
    1.0089  -32.0523   23.6366 N   0  0  0  0  0  0
    1.8547  -31.8358   22.4274 C   0  0  0  0  0  0
    0.9131  -33.4660   24.0372 C   0  0  0  0  0  0
    0.8128  -34.4855   23.0713 C   0  0  0  0  0  0
    0.6514  -35.8471   23.4688 C   0  0  0  0  0  0
    0.5919  -36.1907   24.8265 C   0  0  0  0  0  0
    0.3829  -37.6470   25.2767 N   0  0  0  0  0  0
    0.1813  -38.5212   24.4323 O   0  0  0  0  0  0
    0.3991  -37.8599   26.4617 O   0  0  0  0  0  0
    0.7167  -35.1707   25.7716 C   0  0  0  0  0  0
    0.8884  -33.8265   25.3742 C   0  0  0  0  0  0
    1.1394  -32.8082   26.2912 N   0  0  0  0  0  0
    2.1984  -33.0868   27.3916 C   0  0  0  0  0  0
    2.7397  -31.8911   28.0560 C   0  0  0  0  0  0
    0.0212  -31.9890   26.5582 C   0  0  0  0  0  0
  1  2  2  0  0  0
  1 22  1  0  0  0
  2  3  1  0  0  0
  3  4  2  0  0  0
  4  5  1  0  0  0
  5  6  1  0  0  0
  5 22  2  0  0  0
  6  7  2  0  0  0
  6  8  1  0  0  0
  8  9  1  0  0  0
  8 10  1  0  0  0
 10 11  2  0  0  0
 10 18  1  0  0  0
 11 12  1  0  0  0
 12 13  2  0  0  0
 13 14  1  0  0  0
 13 17  1  0  0  0
 14 15  2  0  0  0
 14 16  2  0  0  0
 17 18  2  0  0  0
 18 19  1  0  0  0
 19 20  1  0  0  0
 19 22  1  0  0  0
 20 21  1  0  0  0
M  END
>  <CHROM.0>
-169.85373732,-142.48661099

>  <CHROM.1>
-4.51190737,161.48208727,0.45930369,-33.34141409,25.41226057,1.99915340,1.30643855
-0.26338335

>  <FORMUL>
      U05    C15 H14 N4 O3

>  <HET>
 U05  A 999      22

>  <HETNAM>
     U05 6,11-DIHYDRO-11-ETHYL-6-METHYL-9-NITRO-5H-PYRIDO[2,3-B]
   2 U05 [1,5]BENZODIAZEPIN-5-ONE

>  <HETSYN>
     U05 1051U91

>  <Name>
U05.pdb

>  <RI>
0

>  <Rbt.Current_Directory>
/home/malgorzata/Desktop/rDOCK_IFD/test10/IFD

>  <Rbt.Executable>
rbdock ($Id: //depot/dev/client3/rdock/2013.1/src/exe/rbdock.cxx#4 $)

>  <Rbt.Library>
libRbt.so (2013.1, Build901 2013/11/27)

>  <Rbt.Parameter_File>
/home/malgorzata/Desktop/rDock_2013.1_src/data/scripts/hard_docking.prm

>  <Rbt.Receptor>
cavity.prm

>  <SCORE>
-1.27415

>  <SCORE.INTER>
-1.6493

>  <SCORE.INTER.CONST>
1

>  <SCORE.INTER.POLAR>
0

>  <SCORE.INTER.REPUL>
0

>  <SCORE.INTER.ROT>
2

>  <SCORE.INTER.VDW>
-9.0493

>  <SCORE.INTER.norm>
-0.074968

>  <SCORE.INTRA>
-1.43447

>  <SCORE.INTRA.DIHEDRAL>
-0.965745

>  <SCORE.INTRA.DIHEDRAL.0>
1.34757

>  <SCORE.INTRA.POLAR>
0

>  <SCORE.INTRA.POLAR.0>
0

>  <SCORE.INTRA.REPUL>
0

>  <SCORE.INTRA.REPUL.0>
0

>  <SCORE.INTRA.VDW>
-0.951596

>  <SCORE.INTRA.VDW.0>
0.605696

>  <SCORE.INTRA.norm>
-0.0652031

>  <SCORE.RESTR>
0.895293

>  <SCORE.RESTR.CAVITY>
0.895293

>  <SCORE.RESTR.norm>
0.0406951

>  <SCORE.SYSTEM>
0.914323

>  <SCORE.SYSTEM.CONST>
0

>  <SCORE.SYSTEM.DIHEDRAL>
1.90834

>  <SCORE.SYSTEM.VDW>
-0.0398471

>  <SCORE.SYSTEM.norm>
0.0415602

>  <SCORE.heavy>
22

>  <SCORE.norm>
-0.0579158

$$$$
U05.pdb
  rDOCK(R)          3D
libRbt.so/2013.1/901 2013/11/27
 22 24  0  0  0  0  0  0  0  0999 V2000
   -1.6619  -31.7713   29.0194 N   0  0  0  0  0  0
   -2.8096  -31.0324   29.2103 C   0  0  0  0  0  0
   -2.9730  -29.7533   28.6446 C   0  0  0  0  0  0
   -1.9063  -29.2135   27.8332 C   0  0  0  0  0  0
   -0.7565  -29.9805   27.6341 C   0  0  0  0  0  0
    0.3628  -29.4291   26.7536 C   0  0  0  0  0  0
    0.5231  -28.2093   26.7601 O   0  0  0  0  0  0
    1.1236  -30.2224   25.9517 N   0  0  0  0  0  0
    2.2582  -29.5873   25.2212 C   0  0  0  0  0  0
    1.0411  -31.6787   25.7505 C   0  0  0  0  0  0
    1.3116  -32.2509   24.4928 C   0  0  0  0  0  0
    1.1628  -33.6559   24.2887 C   0  0  0  0  0  0
    0.7469  -34.4881   25.3372 C   0  0  0  0  0  0
    0.5459  -35.9993   25.1301 N   0  0  0  0  0  0
    0.6890  -36.4831   24.0060 O   0  0  0  0  0  0
    0.2236  -36.6446   26.0943 O   0  0  0  0  0  0
    0.5058  -33.9083   26.5842 C   0  0  0  0  0  0
    0.6658  -32.5197   26.7850 C   0  0  0  0  0  0
    0.5532  -31.9345   28.0443 N   0  0  0  0  0  0
    1.2724  -32.6417   29.2244 C   0  0  0  0  0  0
    1.5103  -31.7997   30.4069 C   0  0  0  0  0  0
   -0.6618  -31.2458   28.2495 C   0  0  0  0  0  0
  1  2  2  0  0  0
  1 22  1  0  0  0
  2  3  1  0  0  0
  3  4  2  0  0  0
  4  5  1  0  0  0
  5  6  1  0  0  0
  5 22  2  0  0  0
  6  7  2  0  0  0
  6  8  1  0  0  0
  8  9  1  0  0  0
  8 10  1  0  0  0
 10 11  2  0  0  0
 10 18  1  0  0  0
 11 12  1  0  0  0
 12 13  2  0  0  0
 13 14  1  0  0  0
 13 17  1  0  0  0
 14 15  2  0  0  0
 14 16  2  0  0  0
 17 18  2  0  0  0
 18 19  1  0  0  0
 19 20  1  0  0  0
 19 22  1  0  0  0
 20 21  1  0  0  0
M  END
>  <CHROM.0>
-175.50204988,-140.06900385

>  <CHROM.1>
-3.58776380,160.67490642,0.20390414,-32.07281959,26.87016600,2.01610552,1.00037795
0.11588400

>  <FORMUL>
      U05    C15 H14 N4 O3

>  <HET>
 U05  A 999      22

>  <HETNAM>
     U05 6,11-DIHYDRO-11-ETHYL-6-METHYL-9-NITRO-5H-PYRIDO[2,3-B]
   2 U05 [1,5]BENZODIAZEPIN-5-ONE

>  <HETSYN>
     U05 1051U91

>  <Name>
U05.pdb

>  <RI>
0

>  <Rbt.Current_Directory>
/home/malgorzata/Desktop/rDOCK_IFD/test10/IFD

>  <Rbt.Executable>
rbdock ($Id: //depot/dev/client3/rdock/2013.1/src/exe/rbdock.cxx#4 $)

>  <Rbt.Library>
libRbt.so (2013.1, Build901 2013/11/27)

>  <Rbt.Parameter_File>
/home/malgorzata/Desktop/rDock_2013.1_src/data/scripts/hard_docking.prm

>  <Rbt.Receptor>
cavity.prm

>  <SCORE>
-2.06568

>  <SCORE.INTER>
-1.42434

>  <SCORE.INTER.CONST>
1

>  <SCORE.INTER.POLAR>
0

>  <SCORE.INTER.REPUL>
0

>  <SCORE.INTER.ROT>
2

>  <SCORE.INTER.VDW>
-8.82434

>  <SCORE.INTER.norm>
-0.0647428

>  <SCORE.INTRA>
-1.4531

>  <SCORE.INTRA.DIHEDRAL>
-0.980201

>  <SCORE.INTRA.DIHEDRAL.0>
1.34757

>  <SCORE.INTRA.POLAR>
0

>  <SCORE.INTRA.POLAR.0>
0

>  <SCORE.INTRA.REPUL>
0

>  <SCORE.INTRA.REPUL.0>
0

>  <SCORE.INTRA.VDW>
-0.962995

>  <SCORE.INTRA.VDW.0>
0.605696

>  <SCORE.INTRA.norm>
-0.0660498

>  <SCORE.RESTR>
0.0880914

>  <SCORE.RESTR.CAVITY>
0.0880914

>  <SCORE.RESTR.norm>
0.00400415

>  <SCORE.SYSTEM>
0.723668

>  <SCORE.SYSTEM.CONST>
0

>  <SCORE.SYSTEM.DIHEDRAL>
1.98318

>  <SCORE.SYSTEM.VDW>
-0.267921

>  <SCORE.SYSTEM.norm>
0.032894

>  <SCORE.heavy>
22

>  <SCORE.norm>
-0.0938945

$$$$
U05.pdb
  rDOCK(R)          3D
libRbt.so/2013.1/901 2013/11/27
 22 24  0  0  0  0  0  0  0  0999 V2000
   -1.6120  -36.8473   22.0969 N   0  0  0  0  0  0
   -2.7561  -36.0980   22.2676 C   0  0  0  0  0  0
   -2.8698  -35.1372   23.2907 C   0  0  0  0  0  0
   -1.7456  -34.9302   24.1744 C   0  0  0  0  0  0
   -0.5867  -35.6842   23.9788 C   0  0  0  0  0  0
    0.6161  -35.4502   24.8902 C   0  0  0  0  0  0
    0.3760  -35.1224   26.0514 O   0  0  0  0  0  0
    1.8998  -35.5414   24.4486 N   0  0  0  0  0  0
    2.9921  -35.4004   25.4542 C   0  0  0  0  0  0
    2.3888  -35.8471   23.0937 C   0  0  0  0  0  0
    3.5596  -35.2447   22.5950 C   0  0  0  0  0  0
    3.9891  -35.4936   21.2566 C   0  0  0  0  0  0
    3.2532  -36.3428   20.4184 C   0  0  0  0  0  0
    3.6782  -36.5971   18.9618 N   0  0  0  0  0  0
    3.0442  -37.3999   18.2750 O   0  0  0  0  0  0
    4.6492  -36.0059   18.5650 O   0  0  0  0  0  0
    2.1078  -36.9507   20.9360 C   0  0  0  0  0  0
    1.6932  -36.7112   22.2645 C   0  0  0  0  0  0
    0.6289  -37.3981   22.8445 N   0  0  0  0  0  0
    0.5719  -38.9345   22.6295 C   0  0  0  0  0  0
   -0.2328  -39.6745   23.6137 C   0  0  0  0  0  0
   -0.5577  -36.6396   22.9419 C   0  0  0  0  0  0
  1  2  2  0  0  0
  1 22  1  0  0  0
  2  3  1  0  0  0
  3  4  2  0  0  0
  4  5  1  0  0  0
  5  6  1  0  0  0
  5 22  2  0  0  0
  6  7  2  0  0  0
  6  8  1  0  0  0
  8  9  1  0  0  0
  8 10  1  0  0  0
 10 11  2  0  0  0
 10 18  1  0  0  0
 11 12  1  0  0  0
 12 13  2  0  0  0
 13 14  1  0  0  0
 13 17  1  0  0  0
 14 15  2  0  0  0
 14 16  2  0  0  0
 17 18  2  0  0  0
 18 19  1  0  0  0
 19 20  1  0  0  0
 19 22  1  0  0  0
 20 21  1  0  0  0
M  END
>  <CHROM.0>
1.00178183,-123.86554856

>  <CHROM.1>
176.48236451,158.72649918,1.18833416,-36.36677208,22.46977947,2.39701522
0.26392935,1.18616298

>  <FORMUL>
      U05    C15 H14 N4 O3

>  <HET>
 U05  A 999      22

>  <HETNAM>
     U05 6,11-DIHYDRO-11-ETHYL-6-METHYL-9-NITRO-5H-PYRIDO[2,3-B]
   2 U05 [1,5]BENZODIAZEPIN-5-ONE

>  <HETSYN>
     U05 1051U91

>  <Name>
U05.pdb

>  <RI>
0

>  <Rbt.Current_Directory>
/home/malgorzata/Desktop/rDOCK_IFD/test10/IFD

>  <Rbt.Executable>
rbdock ($Id: //depot/dev/client3/rdock/2013.1/src/exe/rbdock.cxx#4 $)

>  <Rbt.Library>
libRbt.so (2013.1, Build901 2013/11/27)

>  <Rbt.Parameter_File>
/home/malgorzata/Desktop/rDock_2013.1_src/data/scripts/hard_docking.prm

>  <Rbt.Receptor>
cavity.prm

>  <SCORE>
1.88982

>  <SCORE.INTER>
2.32528

>  <SCORE.INTER.CONST>
1

>  <SCORE.INTER.POLAR>
0

>  <SCORE.INTER.REPUL>
0

>  <SCORE.INTER.ROT>
2

>  <SCORE.INTER.VDW>
-5.07472

>  <SCORE.INTER.norm>
0.105695

>  <SCORE.INTRA>
-1.50315

>  <SCORE.INTRA.DIHEDRAL>
-0.948986

>  <SCORE.INTRA.DIHEDRAL.0>
1.34757

>  <SCORE.INTRA.POLAR>
0

>  <SCORE.INTRA.POLAR.0>
0

>  <SCORE.INTRA.REPUL>
0

>  <SCORE.INTRA.REPUL.0>
0

>  <SCORE.INTRA.VDW>
-1.02865

>  <SCORE.INTRA.VDW.0>
0.605696

>  <SCORE.INTRA.norm>
-0.0683249

>  <SCORE.RESTR>
0.505462

>  <SCORE.RESTR.CAVITY>
0.505462

>  <SCORE.RESTR.norm>
0.0229755

>  <SCORE.SYSTEM>
0.562221

>  <SCORE.SYSTEM.CONST>
0

>  <SCORE.SYSTEM.DIHEDRAL>
3.28666

>  <SCORE.SYSTEM.VDW>
-1.08111

>  <SCORE.SYSTEM.norm>
0.0255555

>  <SCORE.heavy>
22

>  <SCORE.norm>
0.0859007

$$$$
U05.pdb
  rDOCK(R)          3D
libRbt.so/2013.1/901 2013/11/27
 22 24  0  0  0  0  0  0  0  0999 V2000
    0.6107  -33.2091   31.1101 N   0  0  0  0  0  0
    0.0489  -33.3528   32.3605 C   0  0  0  0  0  0
   -0.7764  -32.3604   32.9233 C   0  0  0  0  0  0
   -1.0454  -31.1662   32.1558 C   0  0  0  0  0  0
   -0.4837  -31.0419   30.8834 C   0  0  0  0  0  0
   -0.7874  -29.7959   30.0543 C   0  0  0  0  0  0
   -0.9575  -28.7464   30.6732 O   0  0  0  0  0  0
   -0.9212  -29.8301   28.7007 N   0  0  0  0  0  0
   -1.1082  -28.5334   27.9880 C   0  0  0  0  0  0
   -0.8272  -30.9868   27.7944 C   0  0  0  0  0  0
   -1.6344  -31.0706   26.6437 C   0  0  0  0  0  0
   -1.5864  -32.2266   25.8075 C   0  0  0  0  0  0
   -0.7341  -33.2954   26.1175 C   0  0  0  0  0  0
   -0.6924  -34.5655   25.2501 N   0  0  0  0  0  0
   -1.3945  -34.6349   24.2400 O   0  0  0  0  0  0
    0.0200  -35.4604   25.6261 O   0  0  0  0  0  0
    0.0769  -33.1863   27.2488 C   0  0  0  0  0  0
    0.0352  -32.0358   28.0666 C   0  0  0  0  0  0
    0.9191  -31.8470   29.1268 N   0  0  0  0  0  0
    2.4182  -32.1554   28.8668 C   0  0  0  0  0  0
    3.0028  -31.4785   27.6989 C   0  0  0  0  0  0
    0.3467  -32.0728   30.3973 C   0  0  0  0  0  0
  1  2  2  0  0  0
  1 22  1  0  0  0
  2  3  1  0  0  0
  3  4  2  0  0  0
  4  5  1  0  0  0
  5  6  1  0  0  0
  5 22  2  0  0  0
  6  7  2  0  0  0
  6  8  1  0  0  0
  8  9  1  0  0  0
  8 10  1  0  0  0
 10 11  2  0  0  0
 10 18  1  0  0  0
 11 12  1  0  0  0
 12 13  2  0  0  0
 13 14  1  0  0  0
 13 17  1  0  0  0
 14 15  2  0  0  0
 14 16  2  0  0  0
 17 18  2  0  0  0
 18 19  1  0  0  0
 19 20  1  0  0  0
 19 22  1  0  0  0
 20 21  1  0  0  0
M  END
>  <CHROM.0>
5.31970607,-163.32512664

>  <CHROM.1>
1.99827668,52.95791282,-0.23306810,-31.97478261,28.55490937,-1.46520764,1.20090455
-2.14849619

>  <FORMUL>
      U05    C15 H14 N4 O3

>  <HET>
 U05  A 999      22

>  <HETNAM>
     U05 6,11-DIHYDRO-11-ETHYL-6-METHYL-9-NITRO-5H-PYRIDO[2,3-B]
   2 U05 [1,5]BENZODIAZEPIN-5-ONE

>  <HETSYN>
     U05 1051U91

>  <Name>
U05.pdb

>  <RI>
0

>  <Rbt.Current_Directory>
/home/malgorzata/Desktop/rDOCK_IFD/test10/IFD

>  <Rbt.Executable>
rbdock ($Id: //depot/dev/client3/rdock/2013.1/src/exe/rbdock.cxx#4 $)

>  <Rbt.Library>
libRbt.so (2013.1, Build901 2013/11/27)

>  <Rbt.Parameter_File>
/home/malgorzata/Desktop/rDock_2013.1_src/data/scripts/hard_docking.prm

>  <Rbt.Receptor>
cavity.prm

>  <SCORE>
0.882217

>  <SCORE.INTER>
-3.01704

>  <SCORE.INTER.CONST>
1

>  <SCORE.INTER.POLAR>
0

>  <SCORE.INTER.REPUL>
0

>  <SCORE.INTER.ROT>
2

>  <SCORE.INTER.VDW>
-10.417

>  <SCORE.INTER.norm>
-0.137138

>  <SCORE.INTRA>
-1.20441

>  <SCORE.INTRA.DIHEDRAL>
-0.985234

>  <SCORE.INTRA.DIHEDRAL.0>
1.34757

>  <SCORE.INTRA.POLAR>
0

>  <SCORE.INTRA.POLAR.0>
0

>  <SCORE.INTRA.REPUL>
0

>  <SCORE.INTRA.REPUL.0>
0

>  <SCORE.INTRA.VDW>
-0.711798

>  <SCORE.INTRA.VDW.0>
0.605696

>  <SCORE.INTRA.norm>
-0.0547461

>  <SCORE.RESTR>
0.870513

>  <SCORE.RESTR.CAVITY>
0.870513

>  <SCORE.RESTR.norm>
0.0395688

>  <SCORE.SYSTEM>
4.23316

>  <SCORE.SYSTEM.CONST>
0

>  <SCORE.SYSTEM.DIHEDRAL>
0.424838

>  <SCORE.SYSTEM.VDW>
4.02074

>  <SCORE.SYSTEM.norm>
0.192416

>  <SCORE.heavy>
22

>  <SCORE.norm>
0.0401008

$$$$
U05.pdb
  rDOCK(R)          3D
libRbt.so/2013.1/901 2013/11/27
 22 24  0  0  0  0  0  0  0  0999 V2000
    2.0384  -34.4002   20.5014 N   0  0  0  0  0  0
    1.4501  -34.5217   19.2609 C   0  0  0  0  0  0
    0.8964  -35.7378   18.8167 C   0  0  0  0  0  0
    0.9409  -36.8819   19.6979 C   0  0  0  0  0  0
    1.5245  -36.7395   20.9585 C   0  0  0  0  0  0
    1.5488  -37.9364   21.9068 C   0  0  0  0  0  0
    1.6433  -39.0496   21.3918 O   0  0  0  0  0  0
    1.4199  -37.8067   23.2550 N   0  0  0  0  0  0
    1.5691  -39.0344   24.0885 C   0  0  0  0  0  0
    1.2268  -36.5816   24.0487 C   0  0  0  0  0  0
    0.4323  -36.5914   25.2111 C   0  0  0  0  0  0
    0.1943  -35.3851   25.9364 C   0  0  0  0  0  0
    0.7490  -34.1725   25.5042 C   0  0  0  0  0  0
    0.4766  -32.8549   26.2503 N   0  0  0  0  0  0
    0.9749  -31.8072   25.8354 O   0  0  0  0  0  0
   -0.2030  -32.9193   27.2422 O   0  0  0  0  0  0
    1.5537  -34.1843   24.3633 C   0  0  0  0  0  0
    1.7965  -35.3819   23.6556 C   0  0  0  0  0  0
    2.6923  -35.4455   22.5904 N   0  0  0  0  0  0
    4.0677  -34.7498   22.7750 C   0  0  0  0  0  0
    4.8528  -35.2124   23.9299 C   0  0  0  0  0  0
    2.0728  -35.4925   21.3228 C   0  0  0  0  0  0
  1  2  2  0  0  0
  1 22  1  0  0  0
  2  3  1  0  0  0
  3  4  2  0  0  0
  4  5  1  0  0  0
  5  6  1  0  0  0
  5 22  2  0  0  0
  6  7  2  0  0  0
  6  8  1  0  0  0
  8  9  1  0  0  0
  8 10  1  0  0  0
 10 11  2  0  0  0
 10 18  1  0  0  0
 11 12  1  0  0  0
 12 13  2  0  0  0
 13 14  1  0  0  0
 13 17  1  0  0  0
 14 15  2  0  0  0
 14 16  2  0  0  0
 17 18  2  0  0  0
 18 19  1  0  0  0
 19 20  1  0  0  0
 19 22  1  0  0  0
 20 21  1  0  0  0
M  END
>  <CHROM.0>
-176.51866536,-136.25725033

>  <CHROM.1>
-179.53522458,57.04220851,1.55338997,-35.55841667,23.18251854,-0.75316724
1.36877842,0.21054692

>  <FORMUL>
      U05    C15 H14 N4 O3

>  <HET>
 U05  A 999      22

>  <HETNAM>
     U05 6,11-DIHYDRO-11-ETHYL-6-METHYL-9-NITRO-5H-PYRIDO[2,3-B]
   2 U05 [1,5]BENZODIAZEPIN-5-ONE

>  <HETSYN>
     U05 1051U91

>  <Name>
U05.pdb

>  <RI>
0

>  <Rbt.Current_Directory>
/home/malgorzata/Desktop/rDOCK_IFD/test10/IFD

>  <Rbt.Executable>
rbdock ($Id: //depot/dev/client3/rdock/2013.1/src/exe/rbdock.cxx#4 $)

>  <Rbt.Library>
libRbt.so (2013.1, Build901 2013/11/27)

>  <Rbt.Parameter_File>
/home/malgorzata/Desktop/rDock_2013.1_src/data/scripts/hard_docking.prm

>  <Rbt.Receptor>
cavity.prm

>  <SCORE>
1.0073

>  <SCORE.INTER>
1.16803

>  <SCORE.INTER.CONST>
1

>  <SCORE.INTER.POLAR>
0

>  <SCORE.INTER.REPUL>
0

>  <SCORE.INTER.ROT>
2

>  <SCORE.INTER.VDW>
-6.23197

>  <SCORE.INTER.norm>
0.0530921

>  <SCORE.INTRA>
-1.32683

>  <SCORE.INTRA.DIHEDRAL>
-0.92259

>  <SCORE.INTRA.DIHEDRAL.0>
1.34757

>  <SCORE.INTRA.POLAR>
0

>  <SCORE.INTRA.POLAR.0>
0

>  <SCORE.INTRA.REPUL>
0

>  <SCORE.INTRA.REPUL.0>
0

>  <SCORE.INTRA.VDW>
-0.865537

>  <SCORE.INTRA.VDW.0>
0.605696

>  <SCORE.INTRA.norm>
-0.0603106

>  <SCORE.RESTR>
0.656787

>  <SCORE.RESTR.CAVITY>
0.656787

>  <SCORE.RESTR.norm>
0.029854

>  <SCORE.SYSTEM>
0.50932

>  <SCORE.SYSTEM.CONST>
0

>  <SCORE.SYSTEM.DIHEDRAL>
2.28755

>  <SCORE.SYSTEM.VDW>
-0.634456

>  <SCORE.SYSTEM.norm>
0.0231509

>  <SCORE.heavy>
22

>  <SCORE.norm>
0.0457864

$$$$
U05.pdb
  rDOCK(R)          3D
libRbt.so/2013.1/901 2013/11/27
 22 24  0  0  0  0  0  0  0  0999 V2000
   -0.2347  -37.2839   25.6668 N   0  0  0  0  0  0
    0.2762  -38.5481   25.8677 C   0  0  0  0  0  0
    1.5074  -38.9490   25.3143 C   0  0  0  0  0  0
    2.2544  -37.9972   24.5246 C   0  0  0  0  0  0
    1.7329  -36.7145   24.3440 C   0  0  0  0  0  0
    2.5308  -35.6939   23.5352 C   0  0  0  0  0  0
    3.2163  -36.1319   22.6123 O   0  0  0  0  0  0
    2.5409  -34.3667   23.8350 N   0  0  0  0  0  0
    3.2678  -33.4510   22.9091 C   0  0  0  0  0  0
    1.8526  -33.6642   24.9307 C   0  0  0  0  0  0
    2.4455  -32.5544   25.5626 C   0  0  0  0  0  0
    1.8026  -31.9214   26.6689 C   0  0  0  0  0  0
    0.5706  -32.3935   27.1425 C   0  0  0  0  0  0
   -0.1226  -31.7488   28.3554 N   0  0  0  0  0  0
   -1.2403  -32.1401   28.6955 O   0  0  0  0  0  0
    0.4637  -30.8537   28.9075 O   0  0  0  0  0  0
   -0.0151  -33.4799   26.4898 C   0  0  0  0  0  0
    0.6184  -34.0955   25.3881 C   0  0  0  0  0  0
    0.0014  -35.0977   24.6425 N   0  0  0  0  0  0
   -1.4801  -34.8727   24.2367 C   0  0  0  0  0  0
   -1.6792  -34.1882   22.9500 C   0  0  0  0  0  0
    0.4844  -36.3955   24.9166 C   0  0  0  0  0  0
  1  2  2  0  0  0
  1 22  1  0  0  0
  2  3  1  0  0  0
  3  4  2  0  0  0
  4  5  1  0  0  0
  5  6  1  0  0  0
  5 22  2  0  0  0
  6  7  2  0  0  0
  6  8  1  0  0  0
  8  9  1  0  0  0
  8 10  1  0  0  0
 10 11  2  0  0  0
 10 18  1  0  0  0
 11 12  1  0  0  0
 12 13  2  0  0  0
 13 14  1  0  0  0
 13 17  1  0  0  0
 14 15  2  0  0  0
 14 16  2  0  0  0
 17 18  2  0  0  0
 18 19  1  0  0  0
 19 20  1  0  0  0
 19 22  1  0  0  0
 20 21  1  0  0  0
M  END
>  <CHROM.0>
12.50145403,-148.08425100

>  <CHROM.1>
175.82953748,89.88707891,0.91854637,-34.59796112,25.35609980,1.25407133,-0.76177424
-2.74329494

>  <FORMUL>
      U05    C15 H14 N4 O3

>  <HET>
 U05  A 999      22

>  <HETNAM>
     U05 6,11-DIHYDRO-11-ETHYL-6-METHYL-9-NITRO-5H-PYRIDO[2,3-B]
   2 U05 [1,5]BENZODIAZEPIN-5-ONE

>  <HETSYN>
     U05 1051U91

>  <Name>
U05.pdb

>  <RI>
0

>  <Rbt.Current_Directory>
/home/malgorzata/Desktop/rDOCK_IFD/test10/IFD

>  <Rbt.Executable>
rbdock ($Id: //depot/dev/client3/rdock/2013.1/src/exe/rbdock.cxx#4 $)

>  <Rbt.Library>
libRbt.so (2013.1, Build901 2013/11/27)

>  <Rbt.Parameter_File>
/home/malgorzata/Desktop/rDock_2013.1_src/data/scripts/hard_docking.prm

>  <Rbt.Receptor>
cavity.prm

>  <SCORE>
-2.85601

>  <SCORE.INTER>
-3.92719

>  <SCORE.INTER.CONST>
1

>  <SCORE.INTER.POLAR>
0

>  <SCORE.INTER.REPUL>
0

>  <SCORE.INTER.ROT>
2

>  <SCORE.INTER.VDW>
-11.3272

>  <SCORE.INTER.norm>
-0.178508

>  <SCORE.INTRA>
-1.07194

>  <SCORE.INTRA.DIHEDRAL>
0.494966

>  <SCORE.INTRA.DIHEDRAL.0>
1.34757

>  <SCORE.INTRA.POLAR>
0

>  <SCORE.INTRA.POLAR.0>
0

>  <SCORE.INTRA.REPUL>
0

>  <SCORE.INTRA.REPUL.0>
0

>  <SCORE.INTRA.VDW>
-1.31942

>  <SCORE.INTRA.VDW.0>
0.605696

>  <SCORE.INTRA.norm>
-0.0487245

>  <SCORE.RESTR>
0.561962

>  <SCORE.RESTR.CAVITY>
0.561962

>  <SCORE.RESTR.norm>
0.0255437

>  <SCORE.SYSTEM>
1.58116

>  <SCORE.SYSTEM.CONST>
0

>  <SCORE.SYSTEM.DIHEDRAL>
1.54897

>  <SCORE.SYSTEM.VDW>
0.80667

>  <SCORE.SYSTEM.norm>
0.0718707

>  <SCORE.heavy>
22

>  <SCORE.norm>
-0.129819

$$$$
U05.pdb
  rDOCK(R)          3D
libRbt.so/2013.1/901 2013/11/27
 22 24  0  0  0  0  0  0  0  0999 V2000
   -2.7155  -28.1856   26.4378 N   0  0  0  0  0  0
   -2.4077  -26.8429   26.4826 C   0  0  0  0  0  0
   -1.8374  -26.2487   27.6248 C   0  0  0  0  0  0
   -1.5603  -27.0806   28.7731 C   0  0  0  0  0  0
   -1.8614  -28.4426   28.7072 C   0  0  0  0  0  0
   -1.5441  -29.3338   29.9061 C   0  0  0  0  0  0
   -1.6289  -28.8164   31.0190 O   0  0  0  0  0  0
   -1.1341  -30.6243   29.7727 N   0  0  0  0  0  0
   -0.9599  -31.4299   31.0156 C   0  0  0  0  0  0
   -0.9041  -31.3953   28.5395 C   0  0  0  0  0  0
    0.1249  -32.3537   28.4679 C   0  0  0  0  0  0
    0.3851  -33.0477   27.2478 C   0  0  0  0  0  0
   -0.3803  -32.7874   26.1027 C   0  0  0  0  0  0
   -0.0942  -33.4977   24.7683 N   0  0  0  0  0  0
   -0.7708  -33.2227   23.7760 O   0  0  0  0  0  0
    0.7788  -34.3270   24.7672 O   0  0  0  0  0  0
   -1.4121  -31.8515   26.1971 C   0  0  0  0  0  0
   -1.6740  -31.1760   27.4093 C   0  0  0  0  0  0
   -2.7715  -30.3323   27.5660 N   0  0  0  0  0  0
   -4.1390  -30.8371   27.0321 C   0  0  0  0  0  0
   -4.4025  -30.5474   25.6141 C   0  0  0  0  0  0
   -2.4476  -28.9587   27.5331 C   0  0  0  0  0  0
  1  2  2  0  0  0
  1 22  1  0  0  0
  2  3  1  0  0  0
  3  4  2  0  0  0
  4  5  1  0  0  0
  5  6  1  0  0  0
  5 22  2  0  0  0
  6  7  2  0  0  0
  6  8  1  0  0  0
  8  9  1  0  0  0
  8 10  1  0  0  0
 10 11  2  0  0  0
 10 18  1  0  0  0
 11 12  1  0  0  0
 12 13  2  0  0  0
 13 14  1  0  0  0
 13 17  1  0  0  0
 14 15  2  0  0  0
 14 16  2  0  0  0
 17 18  2  0  0  0
 18 19  1  0  0  0
 19 20  1  0  0  0
 19 22  1  0  0  0
 20 21  1  0  0  0
M  END
>  <CHROM.0>
1.72623710,-161.52008361

>  <CHROM.1>
-178.50995939,-86.93497846,-1.51468363,-30.57636240,27.45397438,2.12986028
-1.02191010,1.07457946

>  <FORMUL>
      U05    C15 H14 N4 O3

>  <HET>
 U05  A 999      22

>  <HETNAM>
     U05 6,11-DIHYDRO-11-ETHYL-6-METHYL-9-NITRO-5H-PYRIDO[2,3-B]
   2 U05 [1,5]BENZODIAZEPIN-5-ONE

>  <HETSYN>
     U05 1051U91

>  <Name>
U05.pdb

>  <RI>
0

>  <Rbt.Current_Directory>
/home/malgorzata/Desktop/rDOCK_IFD/test10/IFD

>  <Rbt.Executable>
rbdock ($Id: //depot/dev/client3/rdock/2013.1/src/exe/rbdock.cxx#4 $)

>  <Rbt.Library>
libRbt.so (2013.1, Build901 2013/11/27)

>  <Rbt.Parameter_File>
/home/malgorzata/Desktop/rDock_2013.1_src/data/scripts/hard_docking.prm

>  <Rbt.Receptor>
cavity.prm

>  <SCORE>
0.289443

>  <SCORE.INTER>
-3.57711

>  <SCORE.INTER.CONST>
1

>  <SCORE.INTER.POLAR>
0

>  <SCORE.INTER.REPUL>
0

>  <SCORE.INTER.ROT>
2

>  <SCORE.INTER.VDW>
-10.9771

>  <SCORE.INTER.norm>
-0.162596

>  <SCORE.INTRA>
-1.03073

>  <SCORE.INTRA.DIHEDRAL>
-0.825212

>  <SCORE.INTRA.DIHEDRAL.0>
1.34757

>  <SCORE.INTRA.POLAR>
0

>  <SCORE.INTRA.POLAR.0>
0

>  <SCORE.INTRA.REPUL>
0

>  <SCORE.INTRA.REPUL.0>
0

>  <SCORE.INTRA.VDW>
-0.618122

>  <SCORE.INTRA.VDW.0>
0.605696

>  <SCORE.INTRA.norm>
-0.0468513

>  <SCORE.RESTR>
1.14028

>  <SCORE.RESTR.CAVITY>
1.14028

>  <SCORE.RESTR.norm>
0.051831

>  <SCORE.SYSTEM>
3.757

>  <SCORE.SYSTEM.CONST>
0

>  <SCORE.SYSTEM.DIHEDRAL>
0.471738

>  <SCORE.SYSTEM.VDW>
3.52113

>  <SCORE.SYSTEM.norm>
0.170773

>  <SCORE.heavy>
22

>  <SCORE.norm>
0.0131565

$$$$
U05.pdb
  rDOCK(R)          3D
libRbt.so/2013.1/901 2013/11/27
 22 24  0  0  0  0  0  0  0  0999 V2000
    4.8059  -34.7622   22.9392 N   0  0  0  0  0  0
    4.9501  -34.6373   21.5741 C   0  0  0  0  0  0
    4.1034  -35.3104   20.6725 C   0  0  0  0  0  0
    3.0495  -36.1443   21.2030 C   0  0  0  0  0  0
    2.9044  -36.2477   22.5880 C   0  0  0  0  0  0
    1.7744  -37.1036   23.1561 C   0  0  0  0  0  0
    1.4491  -38.0952   22.5046 O   0  0  0  0  0  0
    1.1090  -36.7767   24.2970 N   0  0  0  0  0  0
    0.0995  -37.7451   24.8141 C   0  0  0  0  0  0
    1.2979  -35.6069   25.1710 C   0  0  0  0  0  0
    0.2033  -35.0079   25.8232 C   0  0  0  0  0  0
    0.3850  -33.8333   26.6139 C   0  0  0  0  0  0
    1.6559  -33.2589   26.7549 C   0  0  0  0  0  0
    1.8686  -31.9733   27.5730 N   0  0  0  0  0  0
    0.9018  -31.4232   28.1029 O   0  0  0  0  0  0
    2.9917  -31.5433   27.6324 O   0  0  0  0  0  0
    2.7345  -33.8788   26.1211 C   0  0  0  0  0  0
    2.5523  -35.0475   25.3498 C   0  0  0  0  0  0
    3.6245  -35.7551   24.8107 N   0  0  0  0  0  0
    4.8418  -36.0177   25.7378 C   0  0  0  0  0  0
    5.5989  -37.2442   25.4438 C   0  0  0  0  0  0
    3.8041  -35.5556   23.4248 C   0  0  0  0  0  0
  1  2  2  0  0  0
  1 22  1  0  0  0
  2  3  1  0  0  0
  3  4  2  0  0  0
  4  5  1  0  0  0
  5  6  1  0  0  0
  5 22  2  0  0  0
  6  7  2  0  0  0
  6  8  1  0  0  0
  8  9  1  0  0  0
  8 10  1  0  0  0
 10 11  2  0  0  0
 10 18  1  0  0  0
 11 12  1  0  0  0
 12 13  2  0  0  0
 13 14  1  0  0  0
 13 17  1  0  0  0
 14 15  2  0  0  0
 14 16  2  0  0  0
 17 18  2  0  0  0
 18 19  1  0  0  0
 19 20  1  0  0  0
 19 22  1  0  0  0
 20 21  1  0  0  0
M  END
>  <CHROM.0>
-175.38059020,-133.32932965

>  <CHROM.1>
-0.97341199,150.77190804,2.57359638,-35.11538513,24.71165370,-1.28473507
0.44919475,0.76224897

>  <FORMUL>
      U05    C15 H14 N4 O3

>  <HET>
 U05  A 999      22

>  <HETNAM>
     U05 6,11-DIHYDRO-11-ETHYL-6-METHYL-9-NITRO-5H-PYRIDO[2,3-B]
   2 U05 [1,5]BENZODIAZEPIN-5-ONE

>  <HETSYN>
     U05 1051U91

>  <Name>
U05.pdb

>  <RI>
0

>  <Rbt.Current_Directory>
/home/malgorzata/Desktop/rDOCK_IFD/test10/IFD

>  <Rbt.Executable>
rbdock ($Id: //depot/dev/client3/rdock/2013.1/src/exe/rbdock.cxx#4 $)

>  <Rbt.Library>
libRbt.so (2013.1, Build901 2013/11/27)

>  <Rbt.Parameter_File>
/home/malgorzata/Desktop/rDock_2013.1_src/data/scripts/hard_docking.prm

>  <Rbt.Receptor>
cavity.prm

>  <SCORE>
-2.4974

>  <SCORE.INTER>
-1.50095

>  <SCORE.INTER.CONST>
1

>  <SCORE.INTER.POLAR>
0

>  <SCORE.INTER.REPUL>
0

>  <SCORE.INTER.ROT>
2

>  <SCORE.INTER.VDW>
-8.90095

>  <SCORE.INTER.norm>
-0.0682251

>  <SCORE.INTRA>
-1.47344

>  <SCORE.INTRA.DIHEDRAL>
-0.763692

>  <SCORE.INTRA.DIHEDRAL.0>
1.34757

>  <SCORE.INTRA.POLAR>
0

>  <SCORE.INTRA.POLAR.0>
0

>  <SCORE.INTRA.REPUL>
0

>  <SCORE.INTRA.REPUL.0>
0

>  <SCORE.INTRA.VDW>
-1.09159

>  <SCORE.INTRA.VDW.0>
0.605696

>  <SCORE.INTRA.norm>
-0.0669746

>  <SCORE.RESTR>
0.0581655

>  <SCORE.RESTR.CAVITY>
0.0581655

>  <SCORE.RESTR.norm>
0.00264389

>  <SCORE.SYSTEM>
0.418823

>  <SCORE.SYSTEM.CONST>
0

>  <SCORE.SYSTEM.DIHEDRAL>
2.54674

>  <SCORE.SYSTEM.VDW>
-0.854547

>  <SCORE.SYSTEM.norm>
0.0190374

>  <SCORE.heavy>
22

>  <SCORE.norm>
-0.113518

$$$$
U05.pdb
  rDOCK(R)          3D
libRbt.so/2013.1/901 2013/11/27
 22 24  0  0  0  0  0  0  0  0999 V2000
    1.7362  -34.4463   25.9855 N   0  0  0  0  0  0
    0.5831  -34.2985   26.7259 C   0  0  0  0  0  0
    0.0175  -33.0335   26.9764 C   0  0  0  0  0  0
    0.6654  -31.8643   26.4280 C   0  0  0  0  0  0
    1.8232  -32.0306   25.6653 C   0  0  0  0  0  0
    2.4969  -30.8022   25.0576 C   0  0  0  0  0  0
    2.4187  -29.7541   25.6971 O   0  0  0  0  0  0
    3.1133  -30.8282   23.8450 N   0  0  0  0  0  0
    3.8312  -29.5976   23.4040 C   0  0  0  0  0  0
    3.2496  -31.9529   22.9044 C   0  0  0  0  0  0
    3.2279  -31.7380   21.5131 C   0  0  0  0  0  0
    3.2918  -32.8405   20.6085 C   0  0  0  0  0  0
    3.3789  -34.1538   21.0908 C   0  0  0  0  0  0
    3.4130  -35.3586   20.1346 N   0  0  0  0  0  0
    3.4711  -36.4995   20.5962 O   0  0  0  0  0  0
    3.4097  -35.1196   18.9545 O   0  0  0  0  0  0
    3.4233  -34.3479   22.4727 C   0  0  0  0  0  0
    3.3721  -33.2537   23.3639 C   0  0  0  0  0  0
    3.5392  -33.4081   24.7383 N   0  0  0  0  0  0
    4.7028  -34.3182   25.2157 C   0  0  0  0  0  0
    4.3980  -35.7569   25.2505 C   0  0  0  0  0  0
    2.3371  -33.3298   25.4742 C   0  0  0  0  0  0
  1  2  2  0  0  0
  1 22  1  0  0  0
  2  3  1  0  0  0
  3  4  2  0  0  0
  4  5  1  0  0  0
  5  6  1  0  0  0
  5 22  2  0  0  0
  6  7  2  0  0  0
  6  8  1  0  0  0
  8  9  1  0  0  0
  8 10  1  0  0  0
 10 11  2  0  0  0
 10 18  1  0  0  0
 11 12  1  0  0  0
 12 13  2  0  0  0
 13 14  1  0  0  0
 13 17  1  0  0  0
 14 15  2  0  0  0
 14 16  2  0  0  0
 17 18  2  0  0  0
 18 19  1  0  0  0
 19 20  1  0  0  0
 19 22  1  0  0  0
 20 21  1  0  0  0
M  END
>  <CHROM.0>
-1.30660708,-132.43299881

>  <CHROM.1>
-178.98692925,-83.71521425,2.84875045,-33.15820744,23.68086088,2.64652265
1.25302789,0.04097275

>  <FORMUL>
      U05    C15 H14 N4 O3

>  <HET>
 U05  A 999      22

>  <HETNAM>
     U05 6,11-DIHYDRO-11-ETHYL-6-METHYL-9-NITRO-5H-PYRIDO[2,3-B]
   2 U05 [1,5]BENZODIAZEPIN-5-ONE

>  <HETSYN>
     U05 1051U91

>  <Name>
U05.pdb

>  <RI>
0

>  <Rbt.Current_Directory>
/home/malgorzata/Desktop/rDOCK_IFD/test10/IFD

>  <Rbt.Executable>
rbdock ($Id: //depot/dev/client3/rdock/2013.1/src/exe/rbdock.cxx#4 $)

>  <Rbt.Library>
libRbt.so (2013.1, Build901 2013/11/27)

>  <Rbt.Parameter_File>
/home/malgorzata/Desktop/rDock_2013.1_src/data/scripts/hard_docking.prm

>  <Rbt.Receptor>
cavity.prm

>  <SCORE>
1.99539

>  <SCORE.INTER>
2.54671

>  <SCORE.INTER.CONST>
1

>  <SCORE.INTER.POLAR>
0

>  <SCORE.INTER.REPUL>
0

>  <SCORE.INTER.ROT>
2

>  <SCORE.INTER.VDW>
-4.85329

>  <SCORE.INTER.norm>
0.115759

>  <SCORE.INTRA>
-1.09658

>  <SCORE.INTRA.DIHEDRAL>
-0.921705

>  <SCORE.INTRA.DIHEDRAL.0>
1.34757

>  <SCORE.INTRA.POLAR>
0

>  <SCORE.INTRA.POLAR.0>
0

>  <SCORE.INTRA.REPUL>
0

>  <SCORE.INTRA.REPUL.0>
0

>  <SCORE.INTRA.VDW>
-0.635723

>  <SCORE.INTRA.VDW.0>
0.605696

>  <SCORE.INTRA.norm>
-0.0498443

>  <SCORE.RESTR>
0.0621515

>  <SCORE.RESTR.CAVITY>
0.0621515

>  <SCORE.RESTR.norm>
0.00282507

>  <SCORE.SYSTEM>
0.483109

>  <SCORE.SYSTEM.CONST>
0

>  <SCORE.SYSTEM.DIHEDRAL>
2.58995

>  <SCORE.SYSTEM.VDW>
-0.811867

>  <SCORE.SYSTEM.norm>
0.0219595

>  <SCORE.heavy>
22

>  <SCORE.norm>
0.0906997

$$$$
