REMARK  10 active torsions:
REMARK  status: ('A' for Active; 'I' for Inactive)
REMARK    1  A    between atoms: C1C_1  and  C1_13 
REMARK    2  A    between atoms: C4P_8  and  N1_11 
REMARK    3  A    between atoms: N1_11  and  C4_16 
REMARK    4  A    between atoms: C1_13  and  C2_14 
REMARK    5  A    between atoms: C1_13  and  C4D_27 
REMARK    6  A    between atoms: C2_14  and  C3_15 
REMARK    7  A    between atoms: C3_15  and  C4_16 
REMARK    8  A    between atoms: N1A_17  and  C1A_23 
REMARK    9  A    between atoms: C1A_23  and  C5B_34 
REMARK   10  A    between atoms: C6D_29  and  C3B_32 
ROOT
HETATM    1  C1D 4PP C 500       6.222   8.306  24.600  1.00 12.29     0.012 A 
HETATM    2  C2D 4PP C 500       4.976   7.817  24.119  1.00 13.77     0.001 A 
HETATM    3  C3D 4PP C 500       4.949   6.818  23.112  1.00 14.22     0.008 A 
HETATM    4  C4D 4PP C 500       6.165   6.302  22.575  1.00 13.69    -0.043 A 
HETATM    5  C5D 4PP C 500       7.424   6.792  23.054  1.00 13.12     0.020 A 
HETATM    6  C6D 4PP C 500       7.455   7.796  24.070  1.00 11.05    -0.025 A 
ENDROOT
BRANCH   4   7
HETATM    7  C1  4PP C 500       6.095   5.222  21.483  1.00 14.14     0.120 C 
BRANCH   7   8
HETATM    8  C1C 4PP C 500       5.116   5.669  20.378  1.00 16.45     0.181 C 
HETATM    9  O2  4PP C 500       3.954   5.240  20.393  1.00 16.98    -0.647 OA
HETATM   10  O3  4PP C 500       5.518   6.536  19.398  1.00 14.33    -0.647 OA
ENDBRANCH   7   8
BRANCH   7  11
HETATM   11  C2  4PP C 500       7.481   4.931  20.903  1.00 11.71     0.022 C 
BRANCH  11  12
HETATM   12  C3  4PP C 500       7.570   3.426  20.669  1.00 13.55     0.021 C 
BRANCH  12  13
HETATM   13  C4  4PP C 500       6.246   2.915  20.112  1.00 13.06     0.120 C 
BRANCH  13  14
HETATM   14  N1  4PP C 500       6.038   3.511  18.775  1.00 11.92    -0.390 N 
ATOM     15  H1  4PP C 500       5.902   4.510  18.617  1.00  0.00     0.159 HD
BRANCH  14  16
HETATM   16  C4P 4PP C 500       6.049   2.500  17.685  1.00 10.26     0.030 A 
HETATM   17  C3P 4PP C 500       6.407   1.175  18.006  1.00 10.63     0.046 A 
HETATM   18  C2P 4PP C 500       6.433   0.183  17.004  1.00 10.60     0.089 A 
HETATM   19  N1P 4PP C 500       6.097   0.523  15.679  1.00 11.75    -0.375 N 
HETATM   20  C6P 4PP C 500       5.734   1.849  15.351  1.00 11.13     0.089 A 
ATOM     21  H1P 4PP C 500       6.115  -0.193  14.951  1.00  0.00     0.164 HD
HETATM   22  C5P 4PP C 500       5.708   2.838  16.345  1.00  9.10     0.046 A 
ENDBRANCH  14  16
ENDBRANCH  13  14
ENDBRANCH  12  13
ENDBRANCH  11  12
ENDBRANCH   7  11
ENDBRANCH   4   7
BRANCH   6  23
HETATM   23  C3B 4PP C 500       8.813   8.330  24.603  1.00  8.69    -0.025 A 
HETATM   24  C2B 4PP C 500       9.318   9.610  24.209  1.00  6.81     0.012 A 
HETATM   25  C1B 4PP C 500      10.570  10.067  24.716  1.00  6.12     0.002 A 
HETATM   26  C6B 4PP C 500      11.317   9.248  25.616  1.00  4.68     0.015 A 
HETATM   27  C5B 4PP C 500      10.811   7.976  26.005  1.00  5.27     0.008 A 
HETATM   28  C4B 4PP C 500       9.568   7.525  25.497  1.00  7.64     0.027 A 
BRANCH  27  29
HETATM   29  C1A 4PP C 500      11.592   7.069  26.975  1.00  4.15     0.102 C 
HETATM   30  N2A 4PP C 500      12.771   6.605  26.613  1.00  2.00    -0.385 N 
ATOM     31 2H2A 4PP C 500      13.288   6.005  27.255  1.00  0.00     0.157 HD
ATOM     32 1H2A 4PP C 500      13.155   6.842  25.698  1.00  0.00     0.157 HD
BRANCH  29  33
HETATM   33  N1A 4PP C 500      11.095   6.762  28.159  1.00  3.52    -0.385 N 
ATOM     34 2H1A 4PP C 500      11.709   6.493  28.928  1.00  0.00     0.157 HD
ATOM     35 1H1A 4PP C 500      10.087   6.788  28.313  1.00  0.00     0.157 HD
ENDBRANCH  29  33
ENDBRANCH  27  29
ENDBRANCH   6  23
TORSDOF 10
