REMARK  10 active torsions:
REMARK  status: ('A' for Active; 'I' for Inactive)
REMARK    1  A    between atoms: C1C_1  and  C1_13 
REMARK    2  A    between atoms: C4P_8  and  N1_11 
REMARK    3  A    between atoms: N1_11  and  C4_16 
REMARK    4  A    between atoms: C1_13  and  C2_14 
REMARK    5  A    between atoms: C1_13  and  C4D_27 
REMARK    6  A    between atoms: C2_14  and  C3_15 
REMARK    7  A    between atoms: C3_15  and  C4_16 
REMARK    8  A    between atoms: N1A_17  and  C1A_23 
REMARK    9  A    between atoms: C1A_23  and  C5B_34 
REMARK   10  A    between atoms: C6D_29  and  C3B_32 
ROOT
HETATM    1  C1D 4PP C 500       5.857   8.163  24.591  1.00 12.29     0.012 A 
HETATM    2  C2D 4PP C 500       4.591   7.995  23.965  1.00 13.77     0.001 A 
HETATM    3  C3D 4PP C 500       4.488   8.054  22.551  1.00 14.22     0.008 A 
HETATM    4  C4D 4PP C 500       5.647   8.282  21.752  1.00 13.69    -0.043 A 
HETATM    5  C5D 4PP C 500       6.925   8.453  22.378  1.00 13.12     0.020 A 
HETATM    6  C6D 4PP C 500       7.033   8.394  23.801  1.00 11.05    -0.025 A 
ENDROOT
BRANCH   4   7
HETATM    7  C1  4PP C 500       5.495   8.341  20.224  1.00 14.14     0.120 C 
BRANCH   7   8
HETATM    8  C1C 4PP C 500       6.715   9.056  19.611  1.00 16.45     0.181 C 
HETATM    9  O2  4PP C 500       7.295   8.538  18.646  1.00 16.98    -0.647 OA
HETATM   10  O3  4PP C 500       7.151  10.251  20.115  1.00 14.33    -0.647 OA
ENDBRANCH   7   8
BRANCH   7  11
HETATM   11  C2  4PP C 500       5.325   6.940  19.630  1.00 11.71     0.022 C 
BRANCH  11  12
HETATM   12  C3  4PP C 500       6.118   5.975  20.506  1.00 13.55     0.021 C 
BRANCH  12  13
HETATM   13  C4  4PP C 500       6.023   4.566  19.932  1.00 13.06     0.120 C 
BRANCH  13  14
HETATM   14  N1  4PP C 500       4.605   4.146  19.951  1.00 11.92    -0.390 N 
ATOM     15  H1  4PP C 500       3.992   4.189  19.137  1.00  0.00     0.159 HD
BRANCH  14  16
HETATM   16  C4P 4PP C 500       4.167   3.655  21.285  1.00 10.26     0.030 A 
HETATM   17  C3P 4PP C 500       4.192   2.266  21.527  1.00 10.63     0.046 A 
HETATM   18  C2P 4PP C 500       3.784   1.755  22.777  1.00 10.60     0.089 A 
HETATM   19  N1P 4PP C 500       3.352   2.640  23.784  1.00 11.75    -0.375 N 
HETATM   20  C6P 4PP C 500       3.328   4.033  23.547  1.00 11.13     0.089 A 
ATOM     21  H1P 4PP C 500       3.056   2.274  24.688  1.00  0.00     0.164 HD
HETATM   22  C5P 4PP C 500       3.732   4.545  22.306  1.00  9.10     0.046 A 
ENDBRANCH  14  16
ENDBRANCH  13  14
ENDBRANCH  12  13
ENDBRANCH  11  12
ENDBRANCH   7  11
ENDBRANCH   4   7
BRANCH   6  23
HETATM   23  C3B 4PP C 500       8.414   8.570  24.491  1.00  8.69    -0.025 A 
HETATM   24  C2B 4PP C 500       9.367   9.528  24.017  1.00  6.81     0.012 A 
HETATM   25  C1B 4PP C 500      10.626   9.660  24.673  1.00  6.12     0.002 A 
HETATM   26  C6B 4PP C 500      10.934   8.840  25.800  1.00  4.68     0.015 A 
HETATM   27  C5B 4PP C 500       9.983   7.890  26.268  1.00  5.27     0.008 A 
HETATM   28  C4B 4PP C 500       8.734   7.760  25.611  1.00  7.64     0.027 A 
BRANCH  27  29
HETATM   29  C1A 4PP C 500      10.284   6.991  27.482  1.00  4.15     0.102 C 
HETATM   30  N2A 4PP C 500       9.290   6.366  28.081  1.00  2.00    -0.385 N 
ATOM     31 2H2A 4PP C 500       9.489   5.771  28.884  1.00  0.00     0.157 HD
ATOM     32 1H2A 4PP C 500       8.334   6.485  27.744  1.00  0.00     0.157 HD
BRANCH  29  33
HETATM   33  N1A 4PP C 500      11.521   6.837  27.917  1.00  3.52    -0.385 N 
ATOM     34 2H1A 4PP C 500      12.312   6.925  27.280  1.00  0.00     0.157 HD
ATOM     35 1H1A 4PP C 500      11.694   6.623  28.899  1.00  0.00     0.157 HD
ENDBRANCH  29  33
ENDBRANCH  27  29
ENDBRANCH   6  23
TORSDOF 10
