REMARK  10 active torsions:
REMARK  status: ('A' for Active; 'I' for Inactive)
REMARK    1  A    between atoms: C1C_1  and  C1_13 
REMARK    2  A    between atoms: C4P_8  and  N1_11 
REMARK    3  A    between atoms: N1_11  and  C4_16 
REMARK    4  A    between atoms: C1_13  and  C2_14 
REMARK    5  A    between atoms: C1_13  and  C4D_27 
REMARK    6  A    between atoms: C2_14  and  C3_15 
REMARK    7  A    between atoms: C3_15  and  C4_16 
REMARK    8  A    between atoms: N1A_17  and  C1A_23 
REMARK    9  A    between atoms: C1A_23  and  C5B_34 
REMARK   10  A    between atoms: C6D_29  and  C3B_32 
ROOT
HETATM    1  C1D 4PP C 500       4.907   9.258  25.549  1.00 12.29     0.012 A 
HETATM    2  C2D 4PP C 500       3.488   9.191  25.482  1.00 13.77     0.001 A 
HETATM    3  C3D 4PP C 500       2.863   8.429  24.461  1.00 14.22     0.008 A 
HETATM    4  C4D 4PP C 500       3.649   7.729  23.499  1.00 13.69    -0.043 A 
HETATM    5  C5D 4PP C 500       5.080   7.795  23.560  1.00 13.12     0.020 A 
HETATM    6  C6D 4PP C 500       5.713   8.559  24.587  1.00 11.05    -0.025 A 
ENDROOT
BRANCH   4   7
HETATM    7  C1  4PP C 500       2.935   6.916  22.407  1.00 14.14     0.120 C 
BRANCH   7   8
HETATM    8  C1C 4PP C 500       1.875   7.798  21.718  1.00 16.45     0.181 C 
HETATM    9  O2  4PP C 500       2.124   8.278  20.603  1.00 16.98    -0.647 OA
HETATM   10  O3  4PP C 500       0.671   8.043  22.320  1.00 14.33    -0.647 OA
ENDBRANCH   7   8
BRANCH   7  11
HETATM   11  C2  4PP C 500       3.934   6.361  21.389  1.00 11.71     0.022 C 
BRANCH  11  12
HETATM   12  C3  4PP C 500       4.646   5.182  22.044  1.00 13.55     0.021 C 
BRANCH  12  13
HETATM   13  C4  4PP C 500       6.025   5.004  21.420  1.00 13.06     0.120 C 
BRANCH  13  14
HETATM   14  N1  4PP C 500       6.959   5.950  22.069  1.00 11.92    -0.390 N 
ATOM     15  H1  4PP C 500       7.301   5.841  23.023  1.00  0.00     0.159 HD
BRANCH  14  16
HETATM   16  C4P 4PP C 500       7.346   7.078  21.180  1.00 10.26     0.030 A 
HETATM   17  C3P 4PP C 500       8.705   7.453  21.130  1.00 10.63     0.046 A 
HETATM   18  C2P 4PP C 500       9.117   8.518  20.302  1.00 10.60     0.089 A 
HETATM   19  N1P 4PP C 500       8.164   9.205  19.524  1.00 11.75    -0.375 N 
HETATM   20  C6P 4PP C 500       6.802   8.831  19.569  1.00 11.13     0.089 A 
ATOM     21  H1P 4PP C 500       8.460   9.976  18.926  1.00  0.00     0.164 HD
HETATM   22  C5P 4PP C 500       6.388   7.774  20.391  1.00  9.10     0.046 A 
ENDBRANCH  14  16
ENDBRANCH  13  14
ENDBRANCH  12  13
ENDBRANCH  11  12
ENDBRANCH   7  11
ENDBRANCH   4   7
BRANCH   6  23
HETATM   23  C3B 4PP C 500       7.263   8.631  24.668  1.00  8.69    -0.025 A 
HETATM   24  C2B 4PP C 500       8.016   9.484  23.799  1.00  6.81     0.012 A 
HETATM   25  C1B 4PP C 500       9.438   9.522  23.900  1.00  6.12     0.002 A 
HETATM   26  C6B 4PP C 500      10.107   8.713  24.867  1.00  4.68     0.015 A 
HETATM   27  C5B 4PP C 500       9.354   7.868  25.730  1.00  5.27     0.008 A 
HETATM   28  C4B 4PP C 500       7.942   7.831  25.624  1.00  7.64     0.027 A 
BRANCH  27  29
HETATM   29  C1A 4PP C 500      10.045   6.983  26.784  1.00  4.15     0.102 C 
HETATM   30  N2A 4PP C 500      11.334   6.733  26.668  1.00  2.00    -0.385 N 
ATOM     31 2H2A 4PP C 500      11.792   6.147  27.367  1.00  0.00     0.157 HD
ATOM     32 1H2A 4PP C 500      11.861   7.118  25.885  1.00  0.00     0.157 HD
BRANCH  29  33
HETATM   33  N1A 4PP C 500       9.363   6.484  27.798  1.00  3.52    -0.385 N 
ATOM     34 2H1A 4PP C 500       8.343   6.498  27.797  1.00  0.00     0.157 HD
ATOM     35 1H1A 4PP C 500       9.854   6.083  28.597  1.00  0.00     0.157 HD
ENDBRANCH  29  33
ENDBRANCH  27  29
ENDBRANCH   6  23
TORSDOF 10
