REMARK  10 active torsions:
REMARK  status: ('A' for Active; 'I' for Inactive)
REMARK    1  A    between atoms: C1C_1  and  C1_13 
REMARK    2  A    between atoms: C4P_8  and  N1_11 
REMARK    3  A    between atoms: N1_11  and  C4_16 
REMARK    4  A    between atoms: C1_13  and  C2_14 
REMARK    5  A    between atoms: C1_13  and  C4D_27 
REMARK    6  A    between atoms: C2_14  and  C3_15 
REMARK    7  A    between atoms: C3_15  and  C4_16 
REMARK    8  A    between atoms: N1A_17  and  C1A_23 
REMARK    9  A    between atoms: C1A_23  and  C5B_34 
REMARK   10  A    between atoms: C6D_29  and  C3B_32 
ROOT
HETATM    1  C1D 4PP C 500       4.950   6.856  23.380  1.00 12.29     0.012 A 
HETATM    2  C2D 4PP C 500       5.137   8.207  23.782  1.00 13.77     0.001 A 
HETATM    3  C3D 4PP C 500       6.325   8.894  23.421  1.00 14.22     0.008 A 
HETATM    4  C4D 4PP C 500       7.335   8.237  22.659  1.00 13.69    -0.043 A 
HETATM    5  C5D 4PP C 500       7.153   6.875  22.253  1.00 13.12     0.020 A 
HETATM    6  C6D 4PP C 500       5.958   6.180  22.612  1.00 11.05    -0.025 A 
ENDROOT
BRANCH   4   7
HETATM    7  C1  4PP C 500       8.609   9.014  22.290  1.00 14.14     0.120 C 
BRANCH   7   8
HETATM    8  C1C 4PP C 500       8.682   9.189  20.759  1.00 16.45     0.181 C 
HETATM    9  O2  4PP C 500       8.709  10.332  20.284  1.00 16.98    -0.647 OA
HETATM   10  O3  4PP C 500       8.726   8.098  19.933  1.00 14.33    -0.647 OA
ENDBRANCH   7   8
BRANCH   7  11
HETATM   11  C2  4PP C 500       8.655  10.370  22.999  1.00 11.71     0.022 C 
BRANCH  11  12
HETATM   12  C3  4PP C 500       9.179  10.128  24.411  1.00 13.55     0.021 C 
BRANCH  12  13
HETATM   13  C4  4PP C 500      10.701  10.035  24.384  1.00 13.06     0.120 C 
BRANCH  13  14
HETATM   14  N1  4PP C 500      11.082   8.611  24.262  1.00 11.92    -0.390 N 
ATOM     15  H1  4PP C 500      11.389   8.182  23.389  1.00  0.00     0.159 HD
BRANCH  14  16
HETATM   16  C4P 4PP C 500      10.971   7.873  25.547  1.00 10.26     0.030 A 
HETATM   17  C3P 4PP C 500      12.134   7.707  26.327  1.00 10.63     0.046 A 
HETATM   18  C2P 4PP C 500      12.076   7.012  27.552  1.00 10.60     0.089 A 
HETATM   19  N1P 4PP C 500      10.847   6.484  27.996  1.00 11.75    -0.375 N 
HETATM   20  C6P 4PP C 500       9.677   6.649  27.220  1.00 11.13     0.089 A 
ATOM     21  H1P 4PP C 500      10.802   5.980  28.882  1.00  0.00     0.164 HD
HETATM   22  C5P 4PP C 500       9.731   7.339  26.001  1.00  9.10     0.046 A 
ENDBRANCH  14  16
ENDBRANCH  13  14
ENDBRANCH  12  13
ENDBRANCH  11  12
ENDBRANCH   7  11
ENDBRANCH   4   7
BRANCH   6  23
HETATM   23  C3B 4PP C 500       5.744   4.706  22.171  1.00  8.69    -0.025 A 
HETATM   24  C2B 4PP C 500       4.619   3.947  22.626  1.00  6.81     0.012 A 
HETATM   25  C1B 4PP C 500       4.457   2.595  22.204  1.00  6.12     0.002 A 
HETATM   26  C6B 4PP C 500       5.415   2.001  21.328  1.00  4.68     0.015 A 
HETATM   27  C5B 4PP C 500       6.531   2.760  20.878  1.00  5.27     0.008 A 
HETATM   28  C4B 4PP C 500       6.690   4.102  21.302  1.00  7.64     0.027 A 
BRANCH  27  29
HETATM   29  C1A 4PP C 500       7.582   2.149  19.931  1.00  4.15     0.102 C 
HETATM   30  N2A 4PP C 500       8.703   2.805  19.706  1.00  2.00    -0.385 N 
ATOM     31 2H2A 4PP C 500       9.399   2.400  19.080  1.00  0.00     0.157 HD
ATOM     32 1H2A 4PP C 500       8.865   3.708  20.150  1.00  0.00     0.157 HD
BRANCH  29  33
HETATM   33  N1A 4PP C 500       7.373   0.979  19.356  1.00  3.52    -0.385 N 
ATOM     34 2H1A 4PP C 500       7.895   0.154  19.648  1.00  0.00     0.157 HD
ATOM     35 1H1A 4PP C 500       6.686   0.894  18.606  1.00  0.00     0.157 HD
ENDBRANCH  29  33
ENDBRANCH  27  29
ENDBRANCH   6  23
TORSDOF 10
