REMARK  10 active torsions:
REMARK  status: ('A' for Active; 'I' for Inactive)
REMARK    1  A    between atoms: C1C_1  and  C1_13 
REMARK    2  A    between atoms: C4P_8  and  N1_11 
REMARK    3  A    between atoms: N1_11  and  C4_16 
REMARK    4  A    between atoms: C1_13  and  C2_14 
REMARK    5  A    between atoms: C1_13  and  C4D_27 
REMARK    6  A    between atoms: C2_14  and  C3_15 
REMARK    7  A    between atoms: C3_15  and  C4_16 
REMARK    8  A    between atoms: N1A_17  and  C1A_23 
REMARK    9  A    between atoms: C1A_23  and  C5B_34 
REMARK   10  A    between atoms: C6D_29  and  C3B_32 
ROOT
HETATM    1  C1D 4PP C 500       6.280   2.981  21.257  1.00 12.29     0.012 A 
HETATM    2  C2D 4PP C 500       7.392   3.578  20.603  1.00 13.77     0.001 A 
HETATM    3  C3D 4PP C 500       7.591   4.981  20.684  1.00 14.22     0.008 A 
HETATM    4  C4D 4PP C 500       6.680   5.797  21.417  1.00 13.69    -0.043 A 
HETATM    5  C5D 4PP C 500       5.556   5.201  22.077  1.00 13.12     0.020 A 
HETATM    6  C6D 4PP C 500       5.353   3.789  21.999  1.00 11.05    -0.025 A 
ENDROOT
BRANCH   4   7
HETATM    7  C1  4PP C 500       6.928   7.313  21.479  1.00 14.14     0.120 C 
BRANCH   7   8
HETATM    8  C1C 4PP C 500       7.802   7.743  20.284  1.00 16.45     0.181 C 
HETATM    9  O2  4PP C 500       9.024   7.547  20.331  1.00 16.98    -0.647 OA
HETATM   10  O3  4PP C 500       7.239   8.324  19.180  1.00 14.33    -0.647 OA
ENDBRANCH   7   8
BRANCH   7  11
HETATM   11  C2  4PP C 500       5.608   8.089  21.501  1.00 11.71     0.022 C 
BRANCH  11  12
HETATM   12  C3  4PP C 500       5.395   8.587  22.927  1.00 13.55     0.021 C 
BRANCH  12  13
HETATM   13  C4  4PP C 500       6.497   8.044  23.829  1.00 13.06     0.120 C 
BRANCH  13  14
HETATM   14  N1  4PP C 500       5.875   7.505  25.058  1.00 11.92    -0.390 N 
ATOM     15  H1  4PP C 500       6.280   6.751  25.613  1.00  0.00     0.159 HD
BRANCH  14  16
HETATM   16  C4P 4PP C 500       4.596   8.181  25.400  1.00 10.26     0.030 A 
HETATM   17  C3P 4PP C 500       4.639   9.534  25.797  1.00 10.63     0.046 A 
HETATM   18  C2P 4PP C 500       3.450  10.214  26.132  1.00 10.60     0.089 A 
HETATM   19  N1P 4PP C 500       2.217   9.536  26.066  1.00 11.75    -0.375 N 
HETATM   20  C6P 4PP C 500       2.167   8.182  25.666  1.00 11.13     0.089 A 
ATOM     21  H1P 4PP C 500       1.355  10.025  26.308  1.00  0.00     0.164 HD
HETATM   22  C5P 4PP C 500       3.347   7.501  25.333  1.00  9.10     0.046 A 
ENDBRANCH  14  16
ENDBRANCH  13  14
ENDBRANCH  12  13
ENDBRANCH  11  12
ENDBRANCH   7  11
ENDBRANCH   4   7
BRANCH   6  23
HETATM   23  C3B 4PP C 500       4.143   3.130  22.716  1.00  8.69    -0.025 A 
HETATM   24  C2B 4PP C 500       3.252   3.897  23.532  1.00  6.81     0.012 A 
HETATM   25  C1B 4PP C 500       2.153   3.258  24.178  1.00  6.12     0.002 A 
HETATM   26  C6B 4PP C 500       1.944   1.856  24.010  1.00  4.68     0.015 A 
HETATM   27  C5B 4PP C 500       2.832   1.097  23.197  1.00  5.27     0.008 A 
HETATM   28  C4B 4PP C 500       3.924   1.736  22.559  1.00  7.64     0.027 A 
BRANCH  27  29
HETATM   29  C1A 4PP C 500       2.633  -0.417  22.995  1.00  4.15     0.102 C 
HETATM   30  N2A 4PP C 500       3.027  -1.249  23.938  1.00  2.00    -0.385 N 
ATOM     31 2H2A 4PP C 500       2.895  -2.251  23.804  1.00  0.00     0.157 HD
ATOM     32 1H2A 4PP C 500       3.463  -0.890  24.787  1.00  0.00     0.157 HD
BRANCH  29  33
HETATM   33  N1A 4PP C 500       2.069  -0.882  21.896  1.00  3.52    -0.385 N 
ATOM     34 2H1A 4PP C 500       1.204  -0.473  21.541  1.00  0.00     0.157 HD
ATOM     35 1H1A 4PP C 500       2.494  -1.661  21.392  1.00  0.00     0.157 HD
ENDBRANCH  29  33
ENDBRANCH  27  29
ENDBRANCH   6  23
TORSDOF 10
