REMARK  10 active torsions:
REMARK  status: ('A' for Active; 'I' for Inactive)
REMARK    1  A    between atoms: C1C_1  and  C1_13 
REMARK    2  A    between atoms: C4P_8  and  N1_11 
REMARK    3  A    between atoms: N1_11  and  C4_16 
REMARK    4  A    between atoms: C1_13  and  C2_14 
REMARK    5  A    between atoms: C1_13  and  C4D_27 
REMARK    6  A    between atoms: C2_14  and  C3_15 
REMARK    7  A    between atoms: C3_15  and  C4_16 
REMARK    8  A    between atoms: N1A_17  and  C1A_23 
REMARK    9  A    between atoms: C1A_23  and  C5B_34 
REMARK   10  A    between atoms: C6D_29  and  C3B_32 
ROOT
HETATM    1  C1D 4PP C 500       6.358   2.211  21.196  1.00 12.29     0.012 A 
HETATM    2  C2D 4PP C 500       5.728   2.763  22.344  1.00 13.77     0.001 A 
HETATM    3  C3D 4PP C 500       4.372   2.453  22.626  1.00 14.22     0.008 A 
HETATM    4  C4D 4PP C 500       3.636   1.590  21.762  1.00 13.69    -0.043 A 
HETATM    5  C5D 4PP C 500       4.265   1.031  20.602  1.00 13.12     0.020 A 
HETATM    6  C6D 4PP C 500       5.630   1.340  20.316  1.00 11.05    -0.025 A 
ENDROOT
BRANCH   4   7
HETATM    7  C1  4PP C 500       2.169   1.279  22.100  1.00 14.14     0.120 C 
BRANCH   7   8
HETATM    8  C1C 4PP C 500       1.944   1.437  23.617  1.00 16.45     0.181 C 
HETATM    9  O2  4PP C 500       1.397   2.465  24.041  1.00 16.98    -0.647 OA
HETATM   10  O3  4PP C 500       2.332   0.454  24.487  1.00 14.33    -0.647 OA
ENDBRANCH   7   8
BRANCH   7  11
HETATM   11  C2  4PP C 500       1.217   2.179  21.308  1.00 11.71     0.022 C 
BRANCH  11  12
HETATM   12  C3  4PP C 500       1.953   3.484  21.025  1.00 13.55     0.021 C 
BRANCH  12  13
HETATM   13  C4  4PP C 500       1.348   4.606  21.861  1.00 13.06     0.120 C 
BRANCH  13  14
HETATM   14  N1  4PP C 500       2.208   4.826  23.045  1.00 11.92    -0.390 N 
ATOM     15  H1  4PP C 500       2.270   4.174  23.826  1.00  0.00     0.159 HD
BRANCH  14  16
HETATM   16  C4P 4PP C 500       2.971   6.100  22.973  1.00 10.26     0.030 A 
HETATM   17  C3P 4PP C 500       3.485   6.502  21.723  1.00 10.63     0.046 A 
HETATM   18  C2P 4PP C 500       4.217   7.702  21.608  1.00 10.60     0.089 A 
HETATM   19  N1P 4PP C 500       4.431   8.500  22.750  1.00 11.75    -0.375 N 
HETATM   20  C6P 4PP C 500       3.915   8.103  24.004  1.00 11.13     0.089 A 
ATOM     21  H1P 4PP C 500       4.960   9.368  22.670  1.00  0.00     0.164 HD
HETATM   22  C5P 4PP C 500       3.188   6.910  24.123  1.00  9.10     0.046 A 
ENDBRANCH  14  16
ENDBRANCH  13  14
ENDBRANCH  12  13
ENDBRANCH  11  12
ENDBRANCH   7  11
ENDBRANCH   4   7
BRANCH   6  23
HETATM   23  C3B 4PP C 500       6.326   0.734  19.066  1.00  8.69    -0.025 A 
HETATM   24  C2B 4PP C 500       5.567   0.223  17.965  1.00  6.81     0.012 A 
HETATM   25  C1B 4PP C 500       6.239  -0.329  16.835  1.00  6.12     0.002 A 
HETATM   26  C6B 4PP C 500       7.666  -0.370  16.803  1.00  4.68     0.015 A 
HETATM   27  C5B 4PP C 500       8.416   0.140  17.900  1.00  5.27     0.008 A 
HETATM   28  C4B 4PP C 500       7.744   0.685  19.021  1.00  7.64     0.027 A 
BRANCH  27  29
HETATM   29  C1A 4PP C 500       9.956   0.111  17.896  1.00  4.15     0.102 C 
HETATM   30  N2A 4PP C 500      10.579  -0.880  17.291  1.00  2.00    -0.385 N 
ATOM     31 2H2A 4PP C 500      11.599  -0.899  17.288  1.00  0.00     0.157 HD
ATOM     32 1H2A 4PP C 500      10.043  -1.620  16.837  1.00  0.00     0.157 HD
BRANCH  29  33
HETATM   33  N1A 4PP C 500      10.650   1.068  18.484  1.00  3.52    -0.385 N 
ATOM     34 2H1A 4PP C 500      11.660   1.130  18.361  1.00  0.00     0.157 HD
ATOM     35 1H1A 4PP C 500      10.177   1.754  19.073  1.00  0.00     0.157 HD
ENDBRANCH  29  33
ENDBRANCH  27  29
ENDBRANCH   6  23
TORSDOF 10
