REMARK  10 active torsions:
REMARK  status: ('A' for Active; 'I' for Inactive)
REMARK    1  A    between atoms: C1C_1  and  C1_13 
REMARK    2  A    between atoms: C4P_8  and  N1_11 
REMARK    3  A    between atoms: N1_11  and  C4_16 
REMARK    4  A    between atoms: C1_13  and  C2_14 
REMARK    5  A    between atoms: C1_13  and  C4D_27 
REMARK    6  A    between atoms: C2_14  and  C3_15 
REMARK    7  A    between atoms: C3_15  and  C4_16 
REMARK    8  A    between atoms: N1A_17  and  C1A_23 
REMARK    9  A    between atoms: C1A_23  and  C5B_34 
REMARK   10  A    between atoms: C6D_29  and  C3B_32 
ROOT
HETATM    1  C1D 4PP C 500       5.457   9.267  25.342  1.00 12.29     0.012 A 
HETATM    2  C2D 4PP C 500       4.071   9.231  25.027  1.00 13.77     0.001 A 
HETATM    3  C3D 4PP C 500       3.594   8.342  24.029  1.00 14.22     0.008 A 
HETATM    4  C4D 4PP C 500       4.498   7.483  23.338  1.00 13.69    -0.043 A 
HETATM    5  C5D 4PP C 500       5.897   7.515  23.649  1.00 13.12     0.020 A 
HETATM    6  C6D 4PP C 500       6.380   8.408  24.654  1.00 11.05    -0.025 A 
ENDROOT
BRANCH   4   7
HETATM    7  C1  4PP C 500       3.944   6.535  22.262  1.00 14.14     0.120 C 
BRANCH   7   8
HETATM    8  C1C 4PP C 500       3.727   5.135  22.870  1.00 16.45     0.181 C 
HETATM    9  O2  4PP C 500       4.586   4.669  23.630  1.00 16.98    -0.647 OA
HETATM   10  O3  4PP C 500       2.597   4.417  22.585  1.00 14.33    -0.647 OA
ENDBRANCH   7   8
BRANCH   7  11
HETATM   11  C2  4PP C 500       2.646   7.080  21.661  1.00 11.71     0.022 C 
BRANCH  11  12
HETATM   12  C3  4PP C 500       2.872   7.243  20.161  1.00 13.55     0.021 C 
BRANCH  12  13
HETATM   13  C4  4PP C 500       4.364   7.378  19.878  1.00 13.06     0.120 C 
BRANCH  13  14
HETATM   14  N1  4PP C 500       4.877   8.551  20.620  1.00 11.92    -0.390 N 
ATOM     15  H1  4PP C 500       4.277   9.251  21.054  1.00  0.00     0.159 HD
BRANCH  14  16
HETATM   16  C4P 4PP C 500       6.363   8.598  20.664  1.00 10.26     0.030 A 
HETATM   17  C3P 4PP C 500       6.982   9.814  21.022  1.00 10.63     0.046 A 
HETATM   18  C2P 4PP C 500       8.388   9.906  21.075  1.00 10.60     0.089 A 
HETATM   19  N1P 4PP C 500       9.172   8.776  20.770  1.00 11.75    -0.375 N 
HETATM   20  C6P 4PP C 500       8.557   7.554  20.414  1.00 11.13     0.089 A 
ATOM     21  H1P 4PP C 500      10.190   8.839  20.807  1.00  0.00     0.164 HD
HETATM   22  C5P 4PP C 500       7.159   7.459  20.359  1.00  9.10     0.046 A 
ENDBRANCH  14  16
ENDBRANCH  13  14
ENDBRANCH  12  13
ENDBRANCH  11  12
ENDBRANCH   7  11
ENDBRANCH   4   7
BRANCH   6  23
HETATM   23  C3B 4PP C 500       7.893   8.447  25.007  1.00  8.69    -0.025 A 
HETATM   24  C2B 4PP C 500       8.797   9.317  24.318  1.00  6.81     0.012 A 
HETATM   25  C1B 4PP C 500      10.179   9.325  24.666  1.00  6.12     0.002 A 
HETATM   26  C6B 4PP C 500      10.659   8.466  25.700  1.00  4.68     0.015 A 
HETATM   27  C5B 4PP C 500       9.757   7.603  26.383  1.00  5.27     0.008 A 
HETATM   28  C4B 4PP C 500       8.384   7.597  26.032  1.00  7.64     0.027 A 
BRANCH  27  29
HETATM   29  C1A 4PP C 500      10.243   6.665  27.505  1.00  4.15     0.102 C 
HETATM   30  N2A 4PP C 500       9.440   5.716  27.942  1.00  2.00    -0.385 N 
ATOM     31 2H2A 4PP C 500       9.761   5.095  28.684  1.00  0.00     0.157 HD
ATOM     32 1H2A 4PP C 500       8.507   5.612  27.543  1.00  0.00     0.157 HD
BRANCH  29  33
HETATM   33  N1A 4PP C 500      11.450   6.800  28.021  1.00  3.52    -0.385 N 
ATOM     34 2H1A 4PP C 500      12.126   7.439  27.604  1.00  0.00     0.157 HD
ATOM     35 1H1A 4PP C 500      11.719   6.259  28.843  1.00  0.00     0.157 HD
ENDBRANCH  29  33
ENDBRANCH  27  29
ENDBRANCH   6  23
TORSDOF 10
