REMARK  10 active torsions:
REMARK  status: ('A' for Active; 'I' for Inactive)
REMARK    1  A    between atoms: C1C_1  and  C1_13 
REMARK    2  A    between atoms: C4P_8  and  N1_11 
REMARK    3  A    between atoms: N1_11  and  C4_16 
REMARK    4  A    between atoms: C1_13  and  C2_14 
REMARK    5  A    between atoms: C1_13  and  C4D_27 
REMARK    6  A    between atoms: C2_14  and  C3_15 
REMARK    7  A    between atoms: C3_15  and  C4_16 
REMARK    8  A    between atoms: N1A_17  and  C1A_23 
REMARK    9  A    between atoms: C1A_23  and  C5B_34 
REMARK   10  A    between atoms: C6D_29  and  C3B_32 
ROOT
HETATM    1  C1D 4PP C 500       5.181   7.912  24.767  1.00 12.29     0.012 A 
HETATM    2  C2D 4PP C 500       3.879   7.543  24.331  1.00 13.77     0.001 A 
HETATM    3  C3D 4PP C 500       3.711   6.879  23.088  1.00 14.22     0.008 A 
HETATM    4  C4D 4PP C 500       4.840   6.579  22.272  1.00 13.69    -0.043 A 
HETATM    5  C5D 4PP C 500       6.155   6.950  22.705  1.00 13.12     0.020 A 
HETATM    6  C6D 4PP C 500       6.329   7.617  23.956  1.00 11.05    -0.025 A 
ENDROOT
BRANCH   4   7
HETATM    7  C1  4PP C 500       4.617   5.860  20.931  1.00 14.14     0.120 C 
BRANCH   7   8
HETATM    8  C1C 4PP C 500       5.377   6.604  19.814  1.00 16.45     0.181 C 
HETATM    9  O2  4PP C 500       4.860   6.694  18.692  1.00 16.98    -0.647 OA
HETATM   10  O3  4PP C 500       6.601   7.166  20.057  1.00 14.33    -0.647 OA
ENDBRANCH   7   8
BRANCH   7  11
HETATM   11  C2  4PP C 500       5.053   4.395  21.010  1.00 11.71     0.022 C 
BRANCH  11  12
HETATM   12  C3  4PP C 500       6.510   4.328  20.562  1.00 13.55     0.021 C 
BRANCH  12  13
HETATM   13  C4  4PP C 500       7.209   3.169  21.263  1.00 13.06     0.120 C 
BRANCH  13  14
HETATM   14  N1  4PP C 500       6.579   1.905  20.821  1.00 11.92    -0.390 N 
ATOM     15  H1  4PP C 500       5.875   1.406  21.364  1.00  0.00     0.159 HD
BRANCH  14  16
HETATM   16  C4P 4PP C 500       7.083   1.441  19.501  1.00 10.26     0.030 A 
HETATM   17  C3P 4PP C 500       8.441   1.077  19.394  1.00 10.63     0.046 A 
HETATM   18  C2P 4PP C 500       8.962   0.633  18.161  1.00 10.60     0.089 A 
HETATM   19  N1P 4PP C 500       8.118   0.553  17.036  1.00 11.75    -0.375 N 
HETATM   20  C6P 4PP C 500       6.756   0.914  17.139  1.00 11.13     0.089 A 
ATOM     21  H1P 4PP C 500       8.493   0.233  16.143  1.00  0.00     0.164 HD
HETATM   22  C5P 4PP C 500       6.234   1.357  18.362  1.00  9.10     0.046 A 
ENDBRANCH  14  16
ENDBRANCH  13  14
ENDBRANCH  12  13
ENDBRANCH  11  12
ENDBRANCH   7  11
ENDBRANCH   4   7
BRANCH   6  23
HETATM   23  C3B 4PP C 500       7.750   8.017  24.441  1.00  8.69    -0.025 A 
HETATM   24  C2B 4PP C 500       8.530   8.993  23.741  1.00  6.81     0.012 A 
HETATM   25  C1B 4PP C 500       9.831   9.333  24.213  1.00  6.12     0.002 A 
HETATM   26  C6B 4PP C 500      10.355   8.702  25.381  1.00  4.68     0.015 A 
HETATM   27  C5B 4PP C 500       9.576   7.733  26.074  1.00  5.27     0.008 A 
HETATM   28  C4B 4PP C 500       8.284   7.396  25.600  1.00  7.64     0.027 A 
BRANCH  27  29
HETATM   29  C1A 4PP C 500      10.111   7.035  27.339  1.00  4.15     0.102 C 
HETATM   30  N2A 4PP C 500       9.283   6.328  28.082  1.00  2.00    -0.385 N 
ATOM     31 2H2A 4PP C 500       9.637   5.866  28.919  1.00  0.00     0.157 HD
ATOM     32 1H2A 4PP C 500       8.299   6.253  27.822  1.00  0.00     0.157 HD
BRANCH  29  33
HETATM   33  N1A 4PP C 500      11.383   7.132  27.676  1.00  3.52    -0.385 N 
ATOM     34 2H1A 4PP C 500      12.034   7.669  27.103  1.00  0.00     0.157 HD
ATOM     35 1H1A 4PP C 500      11.728   6.664  28.514  1.00  0.00     0.157 HD
ENDBRANCH  29  33
ENDBRANCH  27  29
ENDBRANCH   6  23
TORSDOF 10
