REMARK  10 active torsions:
REMARK  status: ('A' for Active; 'I' for Inactive)
REMARK    1  A    between atoms: C1C_1  and  C1_13 
REMARK    2  A    between atoms: C4P_8  and  N1_11 
REMARK    3  A    between atoms: N1_11  and  C4_16 
REMARK    4  A    between atoms: C1_13  and  C2_14 
REMARK    5  A    between atoms: C1_13  and  C4D_27 
REMARK    6  A    between atoms: C2_14  and  C3_15 
REMARK    7  A    between atoms: C3_15  and  C4_16 
REMARK    8  A    between atoms: N1A_17  and  C1A_23 
REMARK    9  A    between atoms: C1A_23  and  C5B_34 
REMARK   10  A    between atoms: C6D_29  and  C3B_32 
ROOT
HETATM    1  C1D 4PP C 500       5.606   6.540  20.167  1.00 12.29     0.012 A 
HETATM    2  C2D 4PP C 500       5.698   7.954  20.056  1.00 13.77     0.001 A 
HETATM    3  C3D 4PP C 500       5.972   8.738  21.207  1.00 14.22     0.008 A 
HETATM    4  C4D 4PP C 500       6.155   8.116  22.476  1.00 13.69    -0.043 A 
HETATM    5  C5D 4PP C 500       6.062   6.690  22.595  1.00 13.12     0.020 A 
HETATM    6  C6D 4PP C 500       5.788   5.898  21.438  1.00 11.05    -0.025 A 
ENDROOT
BRANCH   4   7
HETATM    7  C1  4PP C 500       6.448   8.999  23.700  1.00 14.14     0.120 C 
BRANCH   7   8
HETATM    8  C1C 4PP C 500       5.234   8.983  24.650  1.00 16.45     0.181 C 
HETATM    9  O2  4PP C 500       4.441   8.032  24.599  1.00 16.98    -0.647 OA
HETATM   10  O3  4PP C 500       5.036   9.998  25.547  1.00 14.33    -0.647 OA
ENDBRANCH   7   8
BRANCH   7  11
HETATM   11  C2  4PP C 500       7.717   8.539  24.422  1.00 11.71     0.022 C 
BRANCH  11  12
HETATM   12  C3  4PP C 500       8.815   9.548  24.101  1.00 13.55     0.021 C 
BRANCH  12  13
HETATM   13  C4  4PP C 500      10.123   8.813  23.832  1.00 13.06     0.120 C 
BRANCH  13  14
HETATM   14  N1  4PP C 500      11.141   9.299  24.789  1.00 11.92    -0.390 N 
ATOM     15  H1  4PP C 500      11.651  10.174  24.675  1.00  0.00     0.159 HD
BRANCH  14  16
HETATM   16  C4P 4PP C 500      11.341   8.374  25.936  1.00 10.26     0.030 A 
HETATM   17  C3P 4PP C 500      10.212   7.989  26.689  1.00 10.63     0.046 A 
HETATM   18  C2P 4PP C 500      10.355   7.116  27.787  1.00 10.60     0.089 A 
HETATM   19  N1P 4PP C 500      11.632   6.627  28.127  1.00 11.75    -0.375 N 
HETATM   20  C6P 4PP C 500      12.766   7.007  27.374  1.00 11.13     0.089 A 
ATOM     21  H1P 4PP C 500      11.738   5.995  28.921  1.00  0.00     0.164 HD
HETATM   22  C5P 4PP C 500      12.628   7.876  26.283  1.00  9.10     0.046 A 
ENDBRANCH  14  16
ENDBRANCH  13  14
ENDBRANCH  12  13
ENDBRANCH  11  12
ENDBRANCH   7  11
ENDBRANCH   4   7
BRANCH   6  23
HETATM   23  C3B 4PP C 500       5.693   4.351  21.552  1.00  8.69    -0.025 A 
HETATM   24  C2B 4PP C 500       6.619   3.495  20.875  1.00  6.81     0.012 A 
HETATM   25  C1B 4PP C 500       6.500   2.080  20.999  1.00  6.12     0.002 A 
HETATM   26  C6B 4PP C 500       5.459   1.519  21.799  1.00  4.68     0.015 A 
HETATM   27  C5B 4PP C 500       4.541   2.374  22.472  1.00  5.27     0.008 A 
HETATM   28  C4B 4PP C 500       4.662   3.780  22.343  1.00  7.64     0.027 A 
BRANCH  27  29
HETATM   29  C1A 4PP C 500       3.408   1.800  23.344  1.00  4.15     0.102 C 
HETATM   30  N2A 4PP C 500       2.785   2.594  24.192  1.00  2.00    -0.385 N 
ATOM     31 2H2A 4PP C 500       2.034   2.214  24.769  1.00  0.00     0.157 HD
ATOM     32 1H2A 4PP C 500       3.058   3.573  24.270  1.00  0.00     0.157 HD
BRANCH  29  33
HETATM   33  N1A 4PP C 500       3.055   0.532  23.242  1.00  3.52    -0.385 N 
ATOM     34 2H1A 4PP C 500       3.017  -0.065  24.068  1.00  0.00     0.157 HD
ATOM     35 1H1A 4PP C 500       2.821   0.138  22.331  1.00  0.00     0.157 HD
ENDBRANCH  29  33
ENDBRANCH  27  29
ENDBRANCH   6  23
TORSDOF 10
