REMARK  10 active torsions:
REMARK  status: ('A' for Active; 'I' for Inactive)
REMARK    1  A    between atoms: C1C_1  and  C1_13 
REMARK    2  A    between atoms: C4P_8  and  N1_11 
REMARK    3  A    between atoms: N1_11  and  C4_16 
REMARK    4  A    between atoms: C1_13  and  C2_14 
REMARK    5  A    between atoms: C1_13  and  C4D_27 
REMARK    6  A    between atoms: C2_14  and  C3_15 
REMARK    7  A    between atoms: C3_15  and  C4_16 
REMARK    8  A    between atoms: N1A_17  and  C1A_23 
REMARK    9  A    between atoms: C1A_23  and  C5B_34 
REMARK   10  A    between atoms: C6D_29  and  C3B_32 
ROOT
HETATM    1  C1D 4PP C 500       6.046   7.828  24.743  1.00 12.29     0.012 A 
HETATM    2  C2D 4PP C 500       4.812   7.284  24.290  1.00 13.77     0.001 A 
HETATM    3  C3D 4PP C 500       4.786   6.448  23.144  1.00 14.22     0.008 A 
HETATM    4  C4D 4PP C 500       5.990   6.149  22.441  1.00 13.69    -0.043 A 
HETATM    5  C5D 4PP C 500       7.236   6.696  22.891  1.00 13.12     0.020 A 
HETATM    6  C6D 4PP C 500       7.267   7.537  24.045  1.00 11.05    -0.025 A 
ENDROOT
BRANCH   4   7
HETATM    7  C1  4PP C 500       5.920   5.241  21.202  1.00 14.14     0.120 C 
BRANCH   7   8
HETATM    8  C1C 4PP C 500       5.442   6.061  19.987  1.00 16.45     0.181 C 
HETATM    9  O2  4PP C 500       4.737   5.511  19.129  1.00 16.98    -0.647 OA
HETATM   10  O3  4PP C 500       5.780   7.381  19.859  1.00 14.33    -0.647 OA
ENDBRANCH   7   8
BRANCH   7  11
HETATM   11  C2  4PP C 500       7.273   4.583  20.922  1.00 11.71     0.022 C 
BRANCH  11  12
HETATM   12  C3  4PP C 500       7.206   3.156  21.456  1.00 13.55     0.021 C 
BRANCH  12  13
HETATM   13  C4  4PP C 500       7.081   2.178  20.293  1.00 13.06     0.120 C 
BRANCH  13  14
HETATM   14  N1  4PP C 500       6.485   2.891  19.142  1.00 11.92    -0.390 N 
ATOM     15  H1  4PP C 500       6.193   3.868  19.173  1.00  0.00     0.159 HD
BRANCH  14  16
HETATM   16  C4P 4PP C 500       6.358   2.032  17.935  1.00 10.26     0.030 A 
HETATM   17  C3P 4PP C 500       6.901   0.732  17.980  1.00 10.63     0.046 A 
HETATM   18  C2P 4PP C 500       6.805  -0.118  16.858  1.00 10.60     0.089 A 
HETATM   19  N1P 4PP C 500       6.162   0.340  15.692  1.00 11.75    -0.375 N 
HETATM   20  C6P 4PP C 500       5.612   1.641  15.642  1.00 11.13     0.089 A 
ATOM     21  H1P 4PP C 500       6.091  -0.272  14.878  1.00  0.00     0.164 HD
HETATM   22  C5P 4PP C 500       5.707   2.489  16.755  1.00  9.10     0.046 A 
ENDBRANCH  14  16
ENDBRANCH  13  14
ENDBRANCH  12  13
ENDBRANCH  11  12
ENDBRANCH   7  11
ENDBRANCH   4   7
BRANCH   6  23
HETATM   23  C3B 4PP C 500       8.613   8.129  24.548  1.00  8.69    -0.025 A 
HETATM   24  C2B 4PP C 500       9.085   9.400  24.090  1.00  6.81     0.012 A 
HETATM   25  C1B 4PP C 500      10.326   9.911  24.571  1.00  6.12     0.002 A 
HETATM   26  C6B 4PP C 500      11.095   9.156  25.507  1.00  4.68     0.015 A 
HETATM   27  C5B 4PP C 500      10.620   7.893  25.961  1.00  5.27     0.008 A 
HETATM   28  C4B 4PP C 500       9.388   7.388  25.478  1.00  7.64     0.027 A 
BRANCH  27  29
HETATM   29  C1A 4PP C 500      11.424   7.054  26.972  1.00  4.15     0.102 C 
HETATM   30  N2A 4PP C 500      12.628   6.629  26.642  1.00  2.00    -0.385 N 
ATOM     31 2H2A 4PP C 500      13.160   6.074  27.311  1.00  0.00     0.157 HD
ATOM     32 1H2A 4PP C 500      13.014   6.851  25.724  1.00  0.00     0.157 HD
BRANCH  29  33
HETATM   33  N1A 4PP C 500      10.923   6.766  28.159  1.00  3.52    -0.385 N 
ATOM     34 2H1A 4PP C 500       9.917   6.800  28.322  1.00  0.00     0.157 HD
ATOM     35 1H1A 4PP C 500      11.544   6.511  28.927  1.00  0.00     0.157 HD
ENDBRANCH  29  33
ENDBRANCH  27  29
ENDBRANCH   6  23
TORSDOF 10
