REMARK  9 active torsions:
REMARK  status: ('A' for Active; 'I' for Inactive)
REMARK    1  A    between atoms: C1_1  and  C2_4 
REMARK    2  A    between atoms: C4_6  and  NE_29 
REMARK    3  A    between atoms: C5_7  and  N5_8 
REMARK       I    between atoms: N5_8  and  C10_10 
REMARK    4  A    between atoms: C6_13  and  C7_15 
REMARK       I    between atoms: C7_15  and  N8_17 
REMARK    5  A    between atoms: N8_17  and  C81_18 
REMARK    6  A    between atoms: N8_17  and  C9_26 
REMARK    7  A    between atoms: C81_18  and  C82_19 
REMARK    8  A    between atoms: C82_19  and  CG_20 
REMARK    9  A    between atoms: C9_26  and  C91_27 
ROOT
HETATM    1  C2  DPC A 466      -1.900  58.539  -6.913  1.00  9.12     0.144 C 
HETATM    2  C3  DPC A 466      -0.697  58.010  -6.666  1.00  7.83     0.051 C 
HETATM    3  C4  DPC A 466      -0.295  56.696  -7.277  1.00  8.13     0.234 C 
HETATM    4  C5  DPC A 466      -1.200  56.306  -8.443  1.00  4.13     0.157 C 
HETATM    5  C6  DPC A 466      -2.651  56.599  -8.067  1.00  9.37     0.246 C 
HETATM    6  O6  DPC A 466      -2.806  57.939  -7.685  1.00 10.40    -0.328 OA
ENDROOT
BRANCH   5   7
HETATM    7  C7  DPC A 466      -3.532  56.450  -9.286  1.00 10.79     0.251 C 
HETATM    8  O7  DPC A 466      -4.228  55.785  -9.165  1.00  9.13    -0.270 OA
HETATM    9  N8  DPC A 466      -3.417  57.300 -10.297  1.00  9.99    -0.350 N 
BRANCH   9  10
HETATM   10  C81 DPC A 466      -4.382  57.134 -11.406  1.00  8.72     0.130 C 
BRANCH  10  11
HETATM   11  C82 DPC A 466      -3.693  56.888 -12.752  1.00  6.37     0.058 C 
BRANCH  11  12
HETATM   12  CG  DPC A 466      -2.631  55.821 -12.570  1.00 13.21    -0.057 A 
HETATM   13  CD1 DPC A 466      -2.991  54.517 -12.163  1.00 12.56     0.007 A 
HETATM   14  CE1 DPC A 466      -2.006  53.542 -11.925  1.00 14.24     0.001 A 
HETATM   15  CZ  DPC A 466      -0.649  53.867 -12.102  1.00 14.76     0.000 A 
HETATM   16  CE2 DPC A 466      -0.295  55.152 -12.535  1.00 12.57     0.001 A 
HETATM   17  CD2 DPC A 466      -1.276  56.121 -12.770  1.00 12.80     0.007 A 
ENDBRANCH  11  12
ENDBRANCH  10  11
ENDBRANCH   9  10
BRANCH   9  18
HETATM   18  C9  DPC A 466      -2.369  58.314 -10.400  1.00 12.20     0.125 C 
BRANCH  18  19
HETATM   19  C91 DPC A 466      -2.927  59.745 -10.332  1.00 11.35     0.015 C 
HETATM   20  C92 DPC A 466      -4.260  59.892  -9.574  1.00 10.72     0.006 C 
ENDBRANCH  18  19
ENDBRANCH   9  18
ENDBRANCH   5   7
BRANCH   4  21
HETATM   21  N5  DPC A 466      -1.056  54.879  -8.708  1.00  8.66    -0.351 N 
HETATM   22  C10 DPC A 466       0.086  54.285  -9.086  1.00  8.96     0.214 C 
HETATM   23  O10 DPC A 466       1.102  54.930  -9.282  1.00  8.83    -0.274 OA
HETATM   24  C11 DPC A 466       0.055  52.751  -9.212  1.00  5.01     0.117 C 
ATOM     25  H5  DPC A 466      -1.882  54.291  -8.598  1.00  0.00     0.163 HD
ENDBRANCH   4  21
BRANCH   3  26
HETATM   26  NE  DPC A 466       1.069  56.784  -7.725  1.00  7.66    -0.070 N 
ATOM     27  HE3 DPC A 466       1.138  56.953  -8.728  1.00  0.00     0.275 HD
ATOM     28  HE2 DPC A 466       1.529  57.636  -7.404  1.00  0.00     0.275 HD
ATOM     29  HE1 DPC A 466       1.568  55.941  -7.438  1.00  0.00     0.275 HD
ENDBRANCH   3  26
BRANCH   1  30
HETATM   30  C1  DPC A 466      -2.321  59.799  -6.274  1.00 12.45     0.233 C 
HETATM   31  O1A DPC A 466      -3.325  59.800  -5.571  1.00 13.44    -0.642 OA
HETATM   32  O1B DPC A 466      -1.633  60.808  -6.351  1.00 11.63    -0.642 OA
ENDBRANCH   1  30
TORSDOF 9
