REMARK  9 active torsions:
REMARK  status: ('A' for Active; 'I' for Inactive)
REMARK    1  A    between atoms: C1_1  and  C2_4 
REMARK    2  A    between atoms: C4_6  and  NE_29 
REMARK    3  A    between atoms: C5_7  and  N5_8 
REMARK       I    between atoms: N5_8  and  C10_10 
REMARK    4  A    between atoms: C6_13  and  C7_15 
REMARK       I    between atoms: C7_15  and  N8_17 
REMARK    5  A    between atoms: N8_17  and  C81_18 
REMARK    6  A    between atoms: N8_17  and  C9_26 
REMARK    7  A    between atoms: C81_18  and  C82_19 
REMARK    8  A    between atoms: C82_19  and  CG_20 
REMARK    9  A    between atoms: C9_26  and  C91_27 
ROOT
HETATM    1  C2  DPC A 466      -2.237  58.587  -7.079  1.00  9.12     0.144 C 
HETATM    2  C3  DPC A 466      -1.109  58.041  -6.613  1.00  7.83     0.051 C 
HETATM    3  C4  DPC A 466      -0.587  56.750  -7.184  1.00  8.13     0.234 C 
HETATM    4  C5  DPC A 466      -1.235  56.415  -8.525  1.00  4.13     0.157 C 
HETATM    5  C6  DPC A 466      -2.732  56.700  -8.440  1.00  9.37     0.246 C 
HETATM    6  O6  DPC A 466      -2.966  58.025  -8.043  1.00 10.40    -0.328 OA
ENDROOT
BRANCH   5   7
HETATM    7  C7  DPC A 466      -3.346  56.607  -9.819  1.00 10.79     0.251 C 
HETATM    8  O7  DPC A 466      -3.847  55.787  -9.950  1.00  9.13    -0.270 OA
HETATM    9  N8  DPC A 466      -3.311  57.653 -10.634  1.00  9.99    -0.350 N 
BRANCH   9  10
HETATM   10  C81 DPC A 466      -4.017  57.500 -11.926  1.00  8.72     0.130 C 
BRANCH  10  11
HETATM   11  C82 DPC A 466      -3.090  57.020 -13.047  1.00  6.37     0.058 C 
BRANCH  11  12
HETATM   12  CG  DPC A 466      -2.384  55.759 -12.592  1.00 13.21    -0.057 A 
HETATM   13  CD1 DPC A 466      -0.974  55.717 -12.513  1.00 12.56     0.007 A 
HETATM   14  CE1 DPC A 466      -0.310  54.530 -12.158  1.00 14.24     0.001 A 
HETATM   15  CZ  DPC A 466      -1.057  53.373 -11.871  1.00 14.76     0.000 A 
HETATM   16  CE2 DPC A 466      -2.457  53.424 -11.919  1.00 12.57     0.001 A 
HETATM   17  CD2 DPC A 466      -3.116  54.606 -12.274  1.00 12.80     0.007 A 
ENDBRANCH  11  12
ENDBRANCH  10  11
ENDBRANCH   9  10
BRANCH   9  18
HETATM   18  C9  DPC A 466      -2.571  58.882 -10.358  1.00 12.20     0.125 C 
BRANCH  18  19
HETATM   19  C91 DPC A 466      -3.403  60.145 -10.640  1.00 11.35     0.015 C 
HETATM   20  C92 DPC A 466      -4.660  60.309  -9.765  1.00 10.72     0.006 C 
ENDBRANCH  18  19
ENDBRANCH   9  18
ENDBRANCH   5   7
BRANCH   4  21
HETATM   21  N5  DPC A 466      -1.036  54.999  -8.814  1.00  8.66    -0.351 N 
HETATM   22  C10 DPC A 466       0.155  54.430  -9.056  1.00  8.96     0.214 C 
HETATM   23  O10 DPC A 466       1.179  55.091  -9.095  1.00  8.83    -0.274 OA
HETATM   24  C11 DPC A 466       0.163  52.900  -9.234  1.00  5.01     0.117 C 
ATOM     25  H5  DPC A 466      -1.860  54.399  -8.833  1.00  0.00     0.163 HD
ENDBRANCH   4  21
BRANCH   3  26
HETATM   26  NE  DPC A 466       0.839  56.849  -7.340  1.00  7.66    -0.070 N 
ATOM     27  HE3 DPC A 466       1.299  55.940  -7.286  1.00  0.00     0.275 HD
ATOM     28  HE2 DPC A 466       1.110  57.090  -8.294  1.00  0.00     0.275 HD
ATOM     29  HE1 DPC A 466       1.204  57.510  -6.654  1.00  0.00     0.275 HD
ENDBRANCH   3  26
BRANCH   1  30
HETATM   30  C1  DPC A 466      -2.783  59.822  -6.487  1.00 12.45     0.233 C 
HETATM   31  O1A DPC A 466      -3.325  59.764  -5.389  1.00 13.44    -0.642 OA
HETATM   32  O1B DPC A 466      -2.614  60.908  -7.024  1.00 11.63    -0.642 OA
ENDBRANCH   1  30
TORSDOF 9
