REMARK  9 active torsions:
REMARK  status: ('A' for Active; 'I' for Inactive)
REMARK    1  A    between atoms: C1_1  and  C2_4 
REMARK    2  A    between atoms: C4_6  and  NE_29 
REMARK    3  A    between atoms: C5_7  and  N5_8 
REMARK       I    between atoms: N5_8  and  C10_10 
REMARK    4  A    between atoms: C6_13  and  C7_15 
REMARK       I    between atoms: C7_15  and  N8_17 
REMARK    5  A    between atoms: N8_17  and  C81_18 
REMARK    6  A    between atoms: N8_17  and  C9_26 
REMARK    7  A    between atoms: C81_18  and  C82_19 
REMARK    8  A    between atoms: C82_19  and  CG_20 
REMARK    9  A    between atoms: C9_26  and  C91_27 
ROOT
HETATM    1  C2  DPC A 466      -2.652  56.289 -11.454  1.00  9.12     0.144 C 
HETATM    2  C3  DPC A 466      -1.842  55.339 -10.975  1.00  7.83     0.051 C 
HETATM    3  C4  DPC A 466      -1.557  55.243  -9.500  1.00  8.13     0.234 C 
HETATM    4  C5  DPC A 466      -2.564  56.036  -8.671  1.00  4.13     0.157 C 
HETATM    5  C6  DPC A 466      -2.816  57.382  -9.347  1.00  9.37     0.246 C 
HETATM    6  O6  DPC A 466      -3.231  57.202 -10.675  1.00 10.40    -0.328 OA
ENDROOT
BRANCH   5   7
HETATM    7  C7  DPC A 466      -3.982  58.075  -8.679  1.00 10.79     0.251 C 
HETATM    8  O7  DPC A 466      -4.374  57.544  -7.968  1.00  9.13    -0.270 OA
HETATM    9  N8  DPC A 466      -4.256  59.340  -8.966  1.00  9.99    -0.350 N 
BRANCH   9  10
HETATM   10  C81 DPC A 466      -5.356  59.963  -8.196  1.00  8.72     0.130 C 
BRANCH  10  11
HETATM   11  C82 DPC A 466      -4.992  60.178  -6.724  1.00  6.37     0.058 C 
BRANCH  11  12
HETATM   12  CG  DPC A 466      -3.556  60.658  -6.640  1.00 13.21    -0.057 A 
HETATM   13  CD1 DPC A 466      -2.555  59.823  -6.096  1.00 12.56     0.007 A 
HETATM   14  CE1 DPC A 466      -1.235  60.286  -5.952  1.00 14.24     0.001 A 
HETATM   15  CZ  DPC A 466      -0.906  61.591  -6.361  1.00 14.76     0.000 A 
HETATM   16  CE2 DPC A 466      -1.894  62.408  -6.929  1.00 12.57     0.001 A 
HETATM   17  CD2 DPC A 466      -3.207  61.946  -7.071  1.00 12.80     0.007 A 
ENDBRANCH  11  12
ENDBRANCH  10  11
ENDBRANCH   9  10
BRANCH   9  18
HETATM   18  C9  DPC A 466      -3.595  60.102 -10.024  1.00 12.20     0.125 C 
BRANCH  18  19
HETATM   19  C91 DPC A 466      -4.567  60.525 -11.139  1.00 11.35     0.015 C 
HETATM   20  C92 DPC A 466      -4.666  59.547 -12.325  1.00 10.72     0.006 C 
ENDBRANCH  18  19
ENDBRANCH   9  18
ENDBRANCH   5   7
BRANCH   4  21
HETATM   21  N5  DPC A 466      -2.013  56.268  -7.340  1.00  8.66    -0.351 N 
HETATM   22  C10 DPC A 466      -0.871  56.927  -7.092  1.00  8.96     0.214 C 
HETATM   23  O10 DPC A 466      -0.172  57.350  -7.997  1.00  8.83    -0.274 OA
HETATM   24  C11 DPC A 466      -0.517  57.157  -5.611  1.00  5.01     0.117 C 
ATOM     25  H5  DPC A 466      -2.533  55.905  -6.543  1.00  0.00     0.163 HD
ENDBRANCH   4  21
BRANCH   3  26
HETATM   26  NE  DPC A 466      -1.581  53.860  -9.107  1.00  7.66    -0.070 N 
ATOM     27  HE3 DPC A 466      -0.865  53.641  -8.414  1.00  0.00     0.275 HD
ATOM     28  HE2 DPC A 466      -2.400  53.630  -8.544  1.00  0.00     0.275 HD
ATOM     29  HE1 DPC A 466      -1.505  53.275  -9.940  1.00  0.00     0.275 HD
ENDBRANCH   3  26
BRANCH   1  30
HETATM   30  C1  DPC A 466      -2.891  56.422 -12.902  1.00 12.45     0.233 C 
HETATM   31  O1A DPC A 466      -4.027  56.664 -13.295  1.00 13.44    -0.642 OA
HETATM   32  O1B DPC A 466      -1.965  56.399 -13.701  1.00 11.63    -0.642 OA
ENDBRANCH   1  30
TORSDOF 9
