REMARK  9 active torsions:
REMARK  status: ('A' for Active; 'I' for Inactive)
REMARK    1  A    between atoms: C1_1  and  C2_4 
REMARK    2  A    between atoms: C4_6  and  NE_29 
REMARK    3  A    between atoms: C5_7  and  N5_8 
REMARK       I    between atoms: N5_8  and  C10_10 
REMARK    4  A    between atoms: C6_13  and  C7_15 
REMARK       I    between atoms: C7_15  and  N8_17 
REMARK    5  A    between atoms: N8_17  and  C81_18 
REMARK    6  A    between atoms: N8_17  and  C9_26 
REMARK    7  A    between atoms: C81_18  and  C82_19 
REMARK    8  A    between atoms: C82_19  and  CG_20 
REMARK    9  A    between atoms: C9_26  and  C91_27 
ROOT
HETATM    1  C2  DPC A 466      -0.818  55.564 -10.862  1.00  9.12     0.144 C 
HETATM    2  C3  DPC A 466      -0.572  54.972  -9.689  1.00  7.83     0.051 C 
HETATM    3  C4  DPC A 466      -1.018  55.607  -8.400  1.00  8.13     0.234 C 
HETATM    4  C5  DPC A 466      -2.061  56.697  -8.629  1.00  4.13     0.157 C 
HETATM    5  C6  DPC A 466      -1.643  57.542  -9.829  1.00  9.37     0.246 C 
HETATM    6  O6  DPC A 466      -1.443  56.738 -10.960  1.00 10.40    -0.328 OA
ENDROOT
BRANCH   5   7
HETATM    7  C7  DPC A 466      -2.774  58.466 -10.219  1.00 10.79     0.251 C 
HETATM    8  O7  DPC A 466      -2.608  59.387  -9.964  1.00  9.13    -0.270 OA
HETATM    9  N8  DPC A 466      -3.762  58.021 -10.984  1.00  9.99    -0.350 N 
BRANCH   9  10
HETATM   10  C81 DPC A 466      -4.776  59.019 -11.391  1.00  8.72     0.130 C 
BRANCH  10  11
HETATM   11  C82 DPC A 466      -5.976  59.057 -10.439  1.00  6.37     0.058 C 
BRANCH  11  12
HETATM   12  CG  DPC A 466      -5.503  59.517  -9.074  1.00 13.21    -0.057 A 
HETATM   13  CD1 DPC A 466      -5.399  58.598  -8.007  1.00 12.56     0.007 A 
HETATM   14  CE1 DPC A 466      -5.028  59.030  -6.721  1.00 14.24     0.001 A 
HETATM   15  CZ  DPC A 466      -4.749  60.391  -6.498  1.00 14.76     0.000 A 
HETATM   16  CE2 DPC A 466      -4.824  61.297  -7.565  1.00 12.57     0.001 A 
HETATM   17  CD2 DPC A 466      -5.194  60.865  -8.842  1.00 12.80     0.007 A 
ENDBRANCH  11  12
ENDBRANCH  10  11
ENDBRANCH   9  10
BRANCH   9  18
HETATM   18  C9  DPC A 466      -3.932  56.623 -11.372  1.00 12.20     0.125 C 
BRANCH  18  19
HETATM   19  C91 DPC A 466      -4.422  55.745 -10.207  1.00 11.35     0.015 C 
HETATM   20  C92 DPC A 466      -4.018  54.261 -10.291  1.00 10.72     0.006 C 
ENDBRANCH  18  19
ENDBRANCH   9  18
ENDBRANCH   5   7
BRANCH   4  21
HETATM   21  N5  DPC A 466      -2.132  57.550  -7.448  1.00  8.66    -0.351 N 
HETATM   22  C10 DPC A 466      -1.067  58.058  -6.808  1.00  8.96     0.214 C 
HETATM   23  O10 DPC A 466       0.070  57.794  -7.160  1.00  8.83    -0.274 OA
HETATM   24  C11 DPC A 466      -1.360  59.022  -5.644  1.00  5.01     0.117 C 
ATOM     25  H5  DPC A 466      -3.057  57.776  -7.082  1.00  0.00     0.163 HD
ENDBRANCH   4  21
BRANCH   3  26
HETATM   26  NE  DPC A 466      -1.554  54.589  -7.536  1.00  7.66    -0.070 N 
ATOM     27  HE3 DPC A 466      -1.707  54.926  -6.586  1.00  0.00     0.275 HD
ATOM     28  HE2 DPC A 466      -2.522  54.357  -7.764  1.00  0.00     0.275 HD
ATOM     29  HE1 DPC A 466      -0.943  53.773  -7.564  1.00  0.00     0.275 HD
ENDBRANCH   3  26
BRANCH   1  30
HETATM   30  C1  DPC A 466      -0.338  54.976 -12.125  1.00 12.45     0.233 C 
HETATM   31  O1A DPC A 466       0.352  53.964 -12.083  1.00 13.44    -0.642 OA
HETATM   32  O1B DPC A 466      -0.699  55.419 -13.207  1.00 11.63    -0.642 OA
ENDBRANCH   1  30
TORSDOF 9
