REMARK  9 active torsions:
REMARK  status: ('A' for Active; 'I' for Inactive)
REMARK    1  A    between atoms: C1_1  and  C2_4 
REMARK    2  A    between atoms: C4_6  and  NE_29 
REMARK    3  A    between atoms: C5_7  and  N5_8 
REMARK       I    between atoms: N5_8  and  C10_10 
REMARK    4  A    between atoms: C6_13  and  C7_15 
REMARK       I    between atoms: C7_15  and  N8_17 
REMARK    5  A    between atoms: N8_17  and  C81_18 
REMARK    6  A    between atoms: N8_17  and  C9_26 
REMARK    7  A    between atoms: C81_18  and  C82_19 
REMARK    8  A    between atoms: C82_19  and  CG_20 
REMARK    9  A    between atoms: C9_26  and  C91_27 
ROOT
HETATM    1  C2  DPC A 466      -3.581  62.638 -10.692  1.00  9.12     0.144 C 
HETATM    2  C3  DPC A 466      -2.415  63.132 -10.263  1.00  7.83     0.051 C 
HETATM    3  C4  DPC A 466      -1.495  62.301  -9.411  1.00  8.13     0.234 C 
HETATM    4  C5  DPC A 466      -1.853  60.818  -9.461  1.00  4.13     0.157 C 
HETATM    5  C6  DPC A 466      -3.370  60.668  -9.376  1.00  9.37     0.246 C 
HETATM    6  O6  DPC A 466      -4.002  61.412 -10.383  1.00 10.40    -0.328 OA
ENDROOT
BRANCH   5   7
HETATM    7  C7  DPC A 466      -3.756  59.235  -9.667  1.00 10.79     0.251 C 
HETATM    8  O7  DPC A 466      -3.578  58.981 -10.586  1.00  9.13    -0.270 OA
HETATM    9  N8  DPC A 466      -4.117  58.429  -8.678  1.00  9.99    -0.350 N 
BRANCH   9  10
HETATM   10  C81 DPC A 466      -4.388  57.022  -9.046  1.00  8.72     0.130 C 
BRANCH  10  11
HETATM   11  C82 DPC A 466      -3.164  56.120  -8.853  1.00  6.37     0.058 C 
BRANCH  11  12
HETATM   12  CG  DPC A 466      -2.964  55.293 -10.107  1.00 13.21    -0.057 A 
HETATM   13  CD1 DPC A 466      -2.524  53.953 -10.016  1.00 12.56     0.007 A 
HETATM   14  CE1 DPC A 466      -2.270  53.202 -11.177  1.00 14.24     0.001 A 
HETATM   15  CZ  DPC A 466      -2.463  53.787 -12.442  1.00 14.76     0.000 A 
HETATM   16  CE2 DPC A 466      -2.929  55.106 -12.530  1.00 12.57     0.001 A 
HETATM   17  CD2 DPC A 466      -3.180  55.852 -11.375  1.00 12.80     0.007 A 
ENDBRANCH  11  12
ENDBRANCH  10  11
ENDBRANCH   9  10
BRANCH   9  18
HETATM   18  C9  DPC A 466      -4.327  58.867  -7.300  1.00 12.20     0.125 C 
BRANCH  18  19
HETATM   19  C91 DPC A 466      -5.573  59.756  -7.148  1.00 11.35     0.015 C 
HETATM   20  C92 DPC A 466      -5.317  61.140  -6.522  1.00 10.72     0.006 C 
ENDBRANCH  18  19
ENDBRANCH   9  18
ENDBRANCH   5   7
BRANCH   4  21
HETATM   21  N5  DPC A 466      -1.242  60.137  -8.325  1.00  8.66    -0.351 N 
HETATM   22  C10 DPC A 466      -1.501  60.418  -7.039  1.00  8.96     0.214 C 
HETATM   23  O10 DPC A 466      -2.256  61.323  -6.726  1.00  8.83    -0.274 OA
HETATM   24  C11 DPC A 466      -0.832  59.512  -5.989  1.00  5.01     0.117 C 
ATOM     25  H5  DPC A 466      -0.572  59.395  -8.522  1.00  0.00     0.163 HD
ENDBRANCH   4  21
BRANCH   3  26
HETATM   26  NE  DPC A 466      -0.141  62.493  -9.856  1.00  7.66    -0.070 N 
ATOM     27  HE3 DPC A 466       0.516  62.570  -9.079  1.00  0.00     0.275 HD
ATOM     28  HE2 DPC A 466       0.248  61.656 -10.291  1.00  0.00     0.275 HD
ATOM     29  HE1 DPC A 466      -0.106  63.304 -10.474  1.00  0.00     0.275 HD
ENDBRANCH   3  26
BRANCH   1  30
HETATM   30  C1  DPC A 466      -4.512  63.465 -11.481  1.00 12.45     0.233 C 
HETATM   31  O1A DPC A 466      -4.081  64.085 -12.446  1.00 13.44    -0.642 OA
HETATM   32  O1B DPC A 466      -5.714  63.460 -11.250  1.00 11.63    -0.642 OA
ENDBRANCH   1  30
TORSDOF 9
