REMARK  9 active torsions:
REMARK  status: ('A' for Active; 'I' for Inactive)
REMARK    1  A    between atoms: C9_2  and  C8_3 
REMARK    2  A    between atoms: C8_3  and  C11_4 
REMARK    3  A    between atoms: C7_10  and  C1_11 
REMARK    4  A    between atoms: C7_10  and  C17_19 
REMARK    5  A    between atoms: C4_14  and  O4_15 
REMARK    6  A    between atoms: C20_22  and  O20_23 
REMARK    7  A    between atoms: O20_23  and  C23_24 
REMARK    8  A    between atoms: C23_24  and  C24_25 
REMARK    9  A    between atoms: C24_25  and  N24_26 
ROOT
HETATM    1  C8  OHT A 600      67.177  33.389  71.790  1.00 25.22    -0.036 C 
HETATM    2  C7  OHT A 600      67.877  34.405  72.376  1.00 24.63    -0.009 C 
ENDROOT
BRANCH   2   3
HETATM    3  C1  OHT A 600      68.394  35.610  71.628  1.00 24.14    -0.024 A 
HETATM    4  C2  OHT A 600      67.578  36.327  70.698  1.00 26.17     0.015 A 
HETATM    5  C3  OHT A 600      68.100  37.411  69.978  1.00 26.36     0.037 A 
HETATM    6  C4  OHT A 600      69.441  37.789  70.181  1.00 29.58     0.065 A 
HETATM    7  C5  OHT A 600      70.256  37.089  71.099  1.00 27.04     0.037 A 
HETATM    8  C6  OHT A 600      69.720  36.017  71.802  1.00 25.11     0.015 A 
BRANCH   6   9
HETATM    9  O4  OHT A 600      69.930  38.833  69.454  1.00 28.95    -0.361 OA
ATOM     10  H4  OHT A 600      70.022  39.675  69.885  1.00  0.00     0.217 HD
ENDBRANCH   6   9
ENDBRANCH   2   3
BRANCH   2  11
HETATM   11  C17 OHT A 600      68.210  34.412  73.803  1.00 26.54    -0.024 A 
HETATM   12  C18 OHT A 600      67.456  35.132  74.726  1.00 26.76     0.015 A 
HETATM   13  C19 OHT A 600      67.736  35.131  76.064  1.00 28.12     0.037 A 
HETATM   14  C20 OHT A 600      68.807  34.387  76.534  1.00 28.11     0.068 A 
HETATM   15  C21 OHT A 600      69.592  33.650  75.631  1.00 26.98     0.037 A 
HETATM   16  C22 OHT A 600      69.290  33.669  74.299  1.00 27.89     0.015 A 
BRANCH  14  17
HETATM   17  O20 OHT A 600      69.133  34.301  77.858  1.00 31.97    -0.349 OA
BRANCH  17  18
HETATM   18  C23 OHT A 600      69.947  35.306  78.455  1.00 40.10     0.206 C 
BRANCH  18  19
HETATM   19  C24 OHT A 600      69.503  35.420  79.888  1.00 45.21     0.297 C 
BRANCH  19  20
HETATM   20  N24 OHT A 600      68.421  36.346  80.085  1.00 50.11     0.082 N 
HETATM   21  C25 OHT A 600      68.357  37.339  79.013  1.00 52.05     0.309 C 
HETATM   22  C26 OHT A 600      67.149  35.616  80.108  1.00 52.76     0.309 C 
ENDBRANCH  19  20
ENDBRANCH  18  19
ENDBRANCH  17  18
ENDBRANCH  14  17
ENDBRANCH   2  11
BRANCH   1  23
HETATM   23  C9  OHT A 600      67.113  33.200  70.289  1.00 23.31     0.036 C 
HETATM   24  C10 OHT A 600      65.794  33.641  69.716  1.00 26.22     0.010 C 
ENDBRANCH   1  23
BRANCH   1  25
HETATM   25  C11 OHT A 600      66.407  32.363  72.557  1.00 27.85    -0.029 A 
HETATM   26  C16 OHT A 600      66.782  31.004  72.518  1.00 28.59     0.012 A 
HETATM   27  C15 OHT A 600      66.092  30.055  73.273  1.00 30.60     0.001 A 
HETATM   28  C14 OHT A 600      65.026  30.420  74.072  1.00 30.44     0.000 A 
HETATM   29  C13 OHT A 600      64.646  31.740  74.121  1.00 31.30     0.001 A 
HETATM   30  C12 OHT A 600      65.332  32.702  73.370  1.00 28.04     0.012 A 
ENDBRANCH   1  25
TORSDOF 9
