REMARK  9 active torsions:
REMARK  status: ('A' for Active; 'I' for Inactive)
REMARK    1  A    between atoms: C9_2  and  C8_3 
REMARK    2  A    between atoms: C8_3  and  C11_4 
REMARK    3  A    between atoms: C7_10  and  C1_11 
REMARK    4  A    between atoms: C7_10  and  C17_19 
REMARK    5  A    between atoms: C4_14  and  O4_15 
REMARK    6  A    between atoms: C20_22  and  O20_23 
REMARK    7  A    between atoms: O20_23  and  C23_24 
REMARK    8  A    between atoms: C23_24  and  C24_25 
REMARK    9  A    between atoms: C24_25  and  N24_26 
ROOT
HETATM    1  C8  OHT A 600      67.112  33.379  71.590  1.00 25.22    -0.036 C 
HETATM    2  C7  OHT A 600      67.916  34.278  72.230  1.00 24.63    -0.009 C 
ENDROOT
BRANCH   2   3
HETATM    3  C1  OHT A 600      68.478  35.517  71.577  1.00 24.14    -0.024 A 
HETATM    4  C2  OHT A 600      67.637  36.474  70.926  1.00 26.17     0.015 A 
HETATM    5  C3  OHT A 600      68.190  37.590  70.282  1.00 26.36     0.037 A 
HETATM    6  C4  OHT A 600      69.587  37.760  70.281  1.00 29.58     0.065 A 
HETATM    7  C5  OHT A 600      70.428  36.823  70.923  1.00 27.04     0.037 A 
HETATM    8  C6  OHT A 600      69.860  35.724  71.555  1.00 25.11     0.015 A 
BRANCH   6   9
HETATM    9  O4  OHT A 600      70.102  38.842  69.631  1.00 28.95    -0.361 OA
ATOM     10  H4  OHT A 600      69.962  39.701  70.010  1.00  0.00     0.217 HD
ENDBRANCH   6   9
ENDBRANCH   2   3
BRANCH   2  11
HETATM   11  C17 OHT A 600      68.328  34.112  73.627  1.00 26.54    -0.024 A 
HETATM   12  C18 OHT A 600      69.357  33.246  73.987  1.00 26.76     0.015 A 
HETATM   13  C19 OHT A 600      69.771  33.096  75.281  1.00 28.12     0.037 A 
HETATM   14  C20 OHT A 600      69.156  33.830  76.282  1.00 28.11     0.068 A 
HETATM   15  C21 OHT A 600      68.111  34.713  75.956  1.00 26.98     0.037 A 
HETATM   16  C22 OHT A 600      67.716  34.843  74.654  1.00 27.89     0.015 A 
BRANCH  14  17
HETATM   17  O20 OHT A 600      69.532  33.768  77.593  1.00 31.97    -0.349 OA
BRANCH  17  18
HETATM   18  C23 OHT A 600      68.889  34.598  78.556  1.00 40.10     0.206 C 
BRANCH  18  19
HETATM   19  C24 OHT A 600      69.768  35.806  78.735  1.00 45.21     0.297 C 
BRANCH  19  20
HETATM   20  N24 OHT A 600      69.155  36.859  79.497  1.00 50.11     0.082 N 
HETATM   21  C25 OHT A 600      68.394  37.772  78.642  1.00 52.05     0.309 C 
HETATM   22  C26 OHT A 600      68.232  36.280  80.481  1.00 52.76     0.309 C 
ENDBRANCH  19  20
ENDBRANCH  18  19
ENDBRANCH  17  18
ENDBRANCH  14  17
ENDBRANCH   2  11
BRANCH   1  23
HETATM   23  C9  OHT A 600      66.950  33.354  70.084  1.00 23.31     0.036 C 
HETATM   24  C10 OHT A 600      65.756  34.147  69.627  1.00 26.22     0.010 C 
ENDBRANCH   1  23
BRANCH   1  25
HETATM   25  C11 OHT A 600      66.311  32.333  72.296  1.00 27.85    -0.029 A 
HETATM   26  C16 OHT A 600      66.526  30.963  72.034  1.00 28.59     0.012 A 
HETATM   27  C15 OHT A 600      65.813  29.987  72.730  1.00 30.60     0.001 A 
HETATM   28  C14 OHT A 600      64.880  30.335  73.687  1.00 30.44     0.000 A 
HETATM   29  C13 OHT A 600      64.657  31.664  73.955  1.00 31.30     0.001 A 
HETATM   30  C12 OHT A 600      65.368  32.653  73.265  1.00 28.04     0.012 A 
ENDBRANCH   1  25
TORSDOF 9
