REMARK  9 active torsions:
REMARK  status: ('A' for Active; 'I' for Inactive)
REMARK    1  A    between atoms: C9_2  and  C8_3 
REMARK    2  A    between atoms: C8_3  and  C11_4 
REMARK    3  A    between atoms: C7_10  and  C1_11 
REMARK    4  A    between atoms: C7_10  and  C17_19 
REMARK    5  A    between atoms: C4_14  and  O4_15 
REMARK    6  A    between atoms: C20_22  and  O20_23 
REMARK    7  A    between atoms: O20_23  and  C23_24 
REMARK    8  A    between atoms: C23_24  and  C24_25 
REMARK    9  A    between atoms: C24_25  and  N24_26 
ROOT
HETATM    1  C8  OHT A 600      67.819  34.437  71.297  1.00 25.22    -0.036 C 
HETATM    2  C7  OHT A 600      67.471  33.732  72.414  1.00 24.63    -0.009 C 
ENDROOT
BRANCH   2   3
HETATM    3  C1  OHT A 600      66.561  32.529  72.399  1.00 24.14    -0.024 A 
HETATM    4  C2  OHT A 600      66.651  31.528  71.382  1.00 26.17     0.015 A 
HETATM    5  C3  OHT A 600      65.758  30.447  71.362  1.00 26.36     0.037 A 
HETATM    6  C4  OHT A 600      64.768  30.356  72.358  1.00 29.58     0.065 A 
HETATM    7  C5  OHT A 600      64.671  31.338  73.371  1.00 27.04     0.037 A 
HETATM    8  C6  OHT A 600      65.565  32.401  73.371  1.00 25.11     0.015 A 
BRANCH   6   9
HETATM    9  O4  OHT A 600      63.899  29.307  72.306  1.00 28.95    -0.361 OA
ATOM     10  H4  OHT A 600      63.619  28.916  73.126  1.00  0.00     0.217 HD
ENDBRANCH   6   9
ENDBRANCH   2   3
BRANCH   2  11
HETATM   11  C17 OHT A 600      67.944  34.095  73.753  1.00 26.54    -0.024 A 
HETATM   12  C18 OHT A 600      67.263  35.018  74.543  1.00 26.76     0.015 A 
HETATM   13  C19 OHT A 600      67.675  35.350  75.803  1.00 28.12     0.037 A 
HETATM   14  C20 OHT A 600      68.809  34.752  76.329  1.00 28.11     0.068 A 
HETATM   15  C21 OHT A 600      69.524  33.819  75.559  1.00 26.98     0.037 A 
HETATM   16  C22 OHT A 600      69.091  33.504  74.301  1.00 27.89     0.015 A 
BRANCH  14  17
HETATM   17  O20 OHT A 600      69.268  35.000  77.591  1.00 31.97    -0.349 OA
BRANCH  17  18
HETATM   18  C23 OHT A 600      68.520  35.838  78.467  1.00 40.10     0.206 C 
BRANCH  18  19
HETATM   19  C24 OHT A 600      69.092  37.222  78.326  1.00 45.21     0.297 C 
BRANCH  19  20
HETATM   20  N24 OHT A 600      68.181  38.265  78.712  1.00 50.11     0.082 N 
HETATM   21  C25 OHT A 600      67.914  38.246  80.151  1.00 52.05     0.309 C 
HETATM   22  C26 OHT A 600      68.758  39.571  78.373  1.00 52.76     0.309 C 
ENDBRANCH  19  20
ENDBRANCH  18  19
ENDBRANCH  17  18
ENDBRANCH  14  17
ENDBRANCH   2  11
BRANCH   1  23
HETATM   23  C9  OHT A 600      67.091  34.287  69.977  1.00 23.31     0.036 C 
HETATM   24  C10 OHT A 600      66.105  35.398  69.742  1.00 26.22     0.010 C 
ENDBRANCH   1  23
BRANCH   1  25
HETATM   25  C11 OHT A 600      68.943  35.421  71.254  1.00 27.85    -0.029 A 
HETATM   26  C16 OHT A 600      68.696  36.785  70.987  1.00 28.59     0.012 A 
HETATM   27  C15 OHT A 600      69.740  37.710  70.996  1.00 30.60     0.001 A 
HETATM   28  C14 OHT A 600      71.036  37.317  71.261  1.00 30.44     0.000 A 
HETATM   29  C13 OHT A 600      71.296  35.993  71.522  1.00 31.30     0.001 A 
HETATM   30  C12 OHT A 600      70.257  35.055  71.518  1.00 28.04     0.012 A 
ENDBRANCH   1  25
TORSDOF 9
