REMARK  9 active torsions:
REMARK  status: ('A' for Active; 'I' for Inactive)
REMARK    1  A    between atoms: C9_2  and  C8_3 
REMARK    2  A    between atoms: C8_3  and  C11_4 
REMARK    3  A    between atoms: C7_10  and  C1_11 
REMARK    4  A    between atoms: C7_10  and  C17_19 
REMARK    5  A    between atoms: C4_14  and  O4_15 
REMARK    6  A    between atoms: C20_22  and  O20_23 
REMARK    7  A    between atoms: O20_23  and  C23_24 
REMARK    8  A    between atoms: C23_24  and  C24_25 
REMARK    9  A    between atoms: C24_25  and  N24_26 
ROOT
HETATM    1  C8  OHT A 600      66.966  33.468  71.490  1.00 25.22    -0.036 C 
HETATM    2  C7  OHT A 600      67.589  34.524  72.092  1.00 24.63    -0.009 C 
ENDROOT
BRANCH   2   3
HETATM    3  C1  OHT A 600      67.972  35.795  71.374  1.00 24.14    -0.024 A 
HETATM    4  C2  OHT A 600      67.075  36.451  70.474  1.00 26.17     0.015 A 
HETATM    5  C3  OHT A 600      67.475  37.602  69.780  1.00 26.36     0.037 A 
HETATM    6  C4  OHT A 600      68.774  38.108  69.979  1.00 29.58     0.065 A 
HETATM    7  C5  OHT A 600      69.667  37.469  70.868  1.00 27.04     0.037 A 
HETATM    8  C6  OHT A 600      69.252  36.330  71.545  1.00 25.11     0.015 A 
BRANCH   6   9
HETATM    9  O4  OHT A 600      69.146  39.216  69.278  1.00 28.95    -0.361 OA
ATOM     10  H4  OHT A 600      69.547  39.933  69.754  1.00  0.00     0.217 HD
ENDBRANCH   6   9
ENDBRANCH   2   3
BRANCH   2  11
HETATM   11  C17 OHT A 600      67.964  34.514  73.509  1.00 26.54    -0.024 A 
HETATM   12  C18 OHT A 600      67.287  35.287  74.450  1.00 26.76     0.015 A 
HETATM   13  C19 OHT A 600      67.607  35.271  75.778  1.00 28.12     0.037 A 
HETATM   14  C20 OHT A 600      68.638  34.459  76.222  1.00 28.11     0.068 A 
HETATM   15  C21 OHT A 600      69.346  33.668  75.300  1.00 26.98     0.037 A 
HETATM   16  C22 OHT A 600      69.006  33.702  73.977  1.00 27.89     0.015 A 
BRANCH  14  17
HETATM   17  O20 OHT A 600      68.997  34.357  77.535  1.00 31.97    -0.349 OA
BRANCH  17  18
HETATM   18  C23 OHT A 600      70.241  34.894  77.976  1.00 40.10     0.206 C 
BRANCH  18  19
HETATM   19  C24 OHT A 600      69.989  36.341  78.303  1.00 45.21     0.297 C 
BRANCH  19  20
HETATM   20  N24 OHT A 600      68.620  36.630  78.631  1.00 50.11     0.082 N 
HETATM   21  C25 OHT A 600      68.264  36.126  79.958  1.00 52.05     0.309 C 
HETATM   22  C26 OHT A 600      68.409  38.082  78.623  1.00 52.76     0.309 C 
ENDBRANCH  19  20
ENDBRANCH  18  19
ENDBRANCH  17  18
ENDBRANCH  14  17
ENDBRANCH   2  11
BRANCH   1  23
HETATM   23  C9  OHT A 600      66.873  33.324  69.985  1.00 23.31     0.036 C 
HETATM   24  C10 OHT A 600      66.441  31.944  69.571  1.00 26.22     0.010 C 
ENDBRANCH   1  23
BRANCH   1  25
HETATM   25  C11 OHT A 600      66.316  32.351  72.241  1.00 27.85    -0.029 A 
HETATM   26  C16 OHT A 600      67.062  31.223  72.642  1.00 28.59     0.012 A 
HETATM   27  C15 OHT A 600      66.464  30.205  73.385  1.00 30.60     0.001 A 
HETATM   28  C14 OHT A 600      65.132  30.273  73.742  1.00 30.44     0.000 A 
HETATM   29  C13 OHT A 600      64.390  31.364  73.359  1.00 31.30     0.001 A 
HETATM   30  C12 OHT A 600      64.978  32.393  72.615  1.00 28.04     0.012 A 
ENDBRANCH   1  25
TORSDOF 9
