SIA.pdb
  rDOCK(R)          3D
libRbt.so/2013.1/901 2013/11/27
 28 28  0  0  0  0  0  0  0  0999 V2000
   -1.9607   59.2865   -6.3312 C   0  0  0  0  0  0
   -2.1465   57.9799   -7.1070 C   0  0  0  0  0  0
   -1.3702   56.6826   -6.9205 C   0  0  0  0  0  0
   -2.1422   55.4591   -7.3902 C   0  0  0  0  0  0
   -3.1947   55.8055   -8.4399 C   0  0  0  0  0  0
   -4.2093   56.7699   -7.8174 C   0  0  0  0  0  0
   -5.2339   57.2635   -8.8559 C   0  0  0  0  0  0
   -6.4532   57.9190   -8.2045 C   0  0  0  0  0  0
   -7.5833   58.3477   -9.1727 C   0  0  0  0  0  0
   -3.6994   53.7791   -9.8484 C   0  0  0  0  0  0
   -4.4737   52.4716   -9.8385 C   0  0  0  0  0  0
   -3.8151   54.5365   -8.7751 N   0  0  0  0  0  0
   -1.0139   59.2115   -5.5261 O   0  0  0  0  0  0
   -2.6210   60.3404   -6.2737 O   0  0  0  0  0  0
   -2.1129   58.7181   -8.3307 O   0  0  0  0  0  0
   -1.2112   54.5870   -7.9874 O   0  0  0  0  0  0
   -3.5599   57.9676   -7.3424 O   0  0  0  0  0  0
   -4.6738   58.2414   -9.7177 O   0  0  0  0  0  0
   -6.9922   56.9115   -7.3787 O   0  0  0  0  0  0
   -8.1944   57.2172   -9.7750 O   0  0  0  0  0  0
   -3.0158   54.1630  -10.7989 O   0  0  0  0  0  0
   -4.3455   54.2329   -7.9989 H   0  0  0  0  0  0
   -1.1595   58.7567   -8.5394 H   0  0  0  0  0  0
   -1.6947   53.7626   -8.1950 H   0  0  0  0  0  0
   -4.1403   57.5109  -10.1000 H   0  0  0  0  0  0
   -7.1753   56.1849   -7.9900 H   0  0  0  0  0  0
   -7.4277   56.8688  -10.2702 H   0  0  0  0  0  0
   -3.3923   60.4392   -6.7965 H   0  0  0  0  0  0
  1 13  2  0  0  0
  1 14  1  0  0  0
  2  1  1  0  0  0
  2  3  1  0  0  0
  2 15  1  0  0  0
  2 17  1  0  0  0
  3  4  1  0  0  0
  4  5  1  0  0  0
  4 16  1  0  0  0
  5  6  1  0  0  0
  5 12  1  0  0  0
  6  7  1  0  0  0
  6 17  1  0  0  0
  7  8  1  0  0  0
  7 18  1  0  0  0
  8  9  1  0  0  0
  8 19  1  0  0  0
  9 20  1  0  0  0
 10 11  1  0  0  0
 10 12  1  0  0  0
 10 21  2  0  0  0
 12 22  1  0  0  0
 14 28  1  0  0  0
 15 23  1  0  0  0
 16 24  1  0  0  0
 18 25  1  0  0  0
 19 26  1  0  0  0
 20 27  1  0  0  0
M  END
>  <CHROM.0>
-178.44909471,63.82508165,91.34247490,64.12575502,-67.96670127,-85.62687625
-37.91976479,-177.95156673,-85.04337001

>  <CHROM.1>
-1.64492478,3.46465654,87.54498509,173.75168012,-106.04238986,164.97612488
-175.54339090,70.18717675,66.54399111,-57.92868235,-63.39831898,-3.81656456
56.86311782,-8.20195971,0.85208184,-0.32047599,0.43254832

>  <FORMUL>
      SIA    C11 H19 N1 O9

>  <HET>
 SIA  A 467      39

>  <HETNAM>
     SIA O-SIALIC ACID

>  <Name>
SIA.pdb

>  <RI>
0

>  <Rbt.Current_Directory>
/home/malgorzata/Desktop/rDOCK_IFD/Wyniki/12_neuraminidase/IFD

>  <Rbt.Executable>
rbdock ($Id: //depot/dev/client3/rdock/2013.1/src/exe/rbdock.cxx#4 $)

>  <Rbt.Library>
libRbt.so (2013.1, Build901 2013/11/27)

>  <Rbt.Parameter_File>
/home/malgorzata/Desktop/rDock_2013.1_src/data/scripts/dock.prm

>  <Rbt.Receptor>
cavity.prm

>  <SCORE>
-57.3793

>  <SCORE.INTER>
-17.432

>  <SCORE.INTER.CONST>
1

>  <SCORE.INTER.POLAR>
-3.78522

>  <SCORE.INTER.REPUL>
0.0142249

>  <SCORE.INTER.ROT>
5

>  <SCORE.INTER.VDW>
-15.0334

>  <SCORE.INTER.norm>
-0.830095

>  <SCORE.INTRA>
-14.712

>  <SCORE.INTRA.DIHEDRAL>
-19.6045

>  <SCORE.INTRA.DIHEDRAL.0>
24.6845

>  <SCORE.INTRA.POLAR>
0.967721

>  <SCORE.INTRA.POLAR.0>
-0.967721

>  <SCORE.INTRA.REPUL>
0

>  <SCORE.INTRA.REPUL.0>
0

>  <SCORE.INTRA.VDW>
-8.20005

>  <SCORE.INTRA.VDW.0>
7.44847

>  <SCORE.INTRA.norm>
-0.700573

>  <SCORE.RESTR>
0

>  <SCORE.RESTR.CAVITY>
0

>  <SCORE.RESTR.norm>
0

>  <SCORE.SYSTEM>
-25.2352

>  <SCORE.SYSTEM.CONST>
0

>  <SCORE.SYSTEM.DIHEDRAL>
2.53554

>  <SCORE.SYSTEM.POLAR>
-7.29709

>  <SCORE.SYSTEM.VDW>
-1.6929

>  <SCORE.SYSTEM.norm>
-1.20168

>  <SCORE.heavy>
21

>  <SCORE.norm>
-2.73235

$$$$
SIA.pdb
  rDOCK(R)          3D
libRbt.so/2013.1/901 2013/11/27
 28 28  0  0  0  0  0  0  0  0999 V2000
   -5.5191   60.9439   -9.2480 C   0  0  0  0  0  0
   -4.7159   59.6504   -9.4070 C   0  0  0  0  0  0
   -4.2143   59.0345  -10.7068 C   0  0  0  0  0  0
   -3.0077   58.1305  -10.5055 C   0  0  0  0  0  0
   -2.9317   57.5725   -9.0870 C   0  0  0  0  0  0
   -2.7903   58.7416   -8.1070 C   0  0  0  0  0  0
   -2.8332   58.2636   -6.6436 C   0  0  0  0  0  0
   -2.1771   59.2603   -5.6862 C   0  0  0  0  0  0
   -2.4206   59.0041   -4.1785 C   0  0  0  0  0  0
   -1.5909   55.4582   -9.3645 C   0  0  0  0  0  0
   -0.1725   54.9173   -9.2959 C   0  0  0  0  0  0
   -1.7445   56.7368   -9.0808 N   0  0  0  0  0  0
   -5.5284   61.6105  -10.2995 O   0  0  0  0  0  0
   -6.0571   61.4937   -8.2690 O   0  0  0  0  0  0
   -5.6525   58.9812   -8.5592 O   0  0  0  0  0  0
   -3.1549   57.0422  -11.3876 O   0  0  0  0  0  0
   -3.9002   59.6553   -8.2290 O   0  0  0  0  0  0
   -4.1664   58.0980   -6.1876 O   0  0  0  0  0  0
   -0.7939   59.0950   -5.9036 O   0  0  0  0  0  0
   -1.8196   57.7868   -3.7648 O   0  0  0  0  0  0
   -2.5750   54.7676   -9.6344 O   0  0  0  0  0  0
   -0.9624   57.3060   -8.8801 H   0  0  0  0  0  0
   -6.4007   58.7963   -9.1591 H   0  0  0  0  0  0
   -3.1452   57.4133  -12.2923 H   0  0  0  0  0  0
   -3.8966   57.1936   -5.9159 H   0  0  0  0  0  0
   -0.3966   59.8507   -5.4494 H   0  0  0  0  0  0
   -2.1191   57.7712   -2.8350 H   0  0  0  0  0  0
   -6.0162   61.0905   -7.4242 H   0  0  0  0  0  0
  1 13  2  0  0  0
  1 14  1  0  0  0
  2  1  1  0  0  0
  2  3  1  0  0  0
  2 15  1  0  0  0
  2 17  1  0  0  0
  3  4  1  0  0  0
  4  5  1  0  0  0
  4 16  1  0  0  0
  5  6  1  0  0  0
  5 12  1  0  0  0
  6  7  1  0  0  0
  6 17  1  0  0  0
  7  8  1  0  0  0
  7 18  1  0  0  0
  8  9  1  0  0  0
  8 19  1  0  0  0
  9 20  1  0  0  0
 10 11  1  0  0  0
 10 12  1  0  0  0
 10 21  2  0  0  0
 12 22  1  0  0  0
 14 28  1  0  0  0
 15 23  1  0  0  0
 16 24  1  0  0  0
 18 25  1  0  0  0
 19 26  1  0  0  0
 20 27  1  0  0  0
M  END
>  <CHROM.0>
179.66499801,-52.38134324,117.27374082,-70.15575151,-91.20174681,-150.34173683
109.75527320,-176.78920764,-85.33214273

>  <CHROM.1>
-0.98456970,-12.49303291,79.59495729,62.45142716,-89.52679063,157.94934447
168.26041736,127.40258308,65.35253608,167.94375998,-176.66942545,-3.24141879
58.39695890,-8.21768672,3.01800530,0.84939462,-1.99293000

>  <FORMUL>
      SIA    C11 H19 N1 O9

>  <HET>
 SIA  A 467      39

>  <HETNAM>
     SIA O-SIALIC ACID

>  <Name>
SIA.pdb

>  <RI>
0

>  <Rbt.Current_Directory>
/home/malgorzata/Desktop/rDOCK_IFD/Wyniki/12_neuraminidase/IFD

>  <Rbt.Executable>
rbdock ($Id: //depot/dev/client3/rdock/2013.1/src/exe/rbdock.cxx#4 $)

>  <Rbt.Library>
libRbt.so (2013.1, Build901 2013/11/27)

>  <Rbt.Parameter_File>
/home/malgorzata/Desktop/rDock_2013.1_src/data/scripts/dock.prm

>  <Rbt.Receptor>
cavity.prm

>  <SCORE>
-55.2529

>  <SCORE.INTER>
-18.1232

>  <SCORE.INTER.CONST>
1

>  <SCORE.INTER.POLAR>
-4.63

>  <SCORE.INTER.REPUL>
0

>  <SCORE.INTER.ROT>
5

>  <SCORE.INTER.VDW>
-12.7812

>  <SCORE.INTER.norm>
-0.86301

>  <SCORE.INTRA>
-11.4851

>  <SCORE.INTRA.DIHEDRAL>
-12.2993

>  <SCORE.INTRA.DIHEDRAL.0>
24.6845

>  <SCORE.INTRA.POLAR>
0.967721

>  <SCORE.INTRA.POLAR.0>
-0.967721

>  <SCORE.INTRA.REPUL>
0

>  <SCORE.INTRA.REPUL.0>
0

>  <SCORE.INTRA.VDW>
-8.62574

>  <SCORE.INTRA.VDW.0>
7.44847

>  <SCORE.INTRA.norm>
-0.546912

>  <SCORE.RESTR>
0

>  <SCORE.RESTR.CAVITY>
0

>  <SCORE.RESTR.norm>
0

>  <SCORE.SYSTEM>
-25.6445

>  <SCORE.SYSTEM.CONST>
0

>  <SCORE.SYSTEM.DIHEDRAL>
2.73955

>  <SCORE.SYSTEM.POLAR>
-7.16991

>  <SCORE.SYSTEM.VDW>
-2.63655

>  <SCORE.SYSTEM.norm>
-1.22117

>  <SCORE.heavy>
21

>  <SCORE.norm>
-2.63109

$$$$
SIA.pdb
  rDOCK(R)          3D
libRbt.so/2013.1/901 2013/11/27
 28 28  0  0  0  0  0  0  0  0999 V2000
   -6.0273   62.1367   -7.0336 C   0  0  0  0  0  0
   -4.5074   61.9747   -7.1175 C   0  0  0  0  0  0
   -3.4743   63.0800   -7.2956 C   0  0  0  0  0  0
   -2.1004   62.6953   -6.7685 C   0  0  0  0  0  0
   -1.8931   61.1835   -6.7393 C   0  0  0  0  0  0
   -2.9297   60.5645   -5.7961 C   0  0  0  0  0  0
   -2.8634   59.0259   -5.8114 C   0  0  0  0  0  0
   -1.9768   58.4704   -4.6952 C   0  0  0  0  0  0
   -2.5804   58.5198   -3.2699 C   0  0  0  0  0  0
   -0.0183   61.3249   -5.0631 C   0  0  0  0  0  0
    1.4365   60.9394   -4.8522 C   0  0  0  0  0  0
   -0.5462   61.0041   -6.2281 N   0  0  0  0  0  0
   -6.5154   62.4628   -8.1316 O   0  0  0  0  0  0
   -6.8321   62.1121   -6.0839 O   0  0  0  0  0  0
   -4.6855   60.9363   -8.0838 O   0  0  0  0  0  0
   -1.1504   63.2418   -7.6533 O   0  0  0  0  0  0
   -4.2711   60.8799   -6.2239 O   0  0  0  0  0  0
   -4.1446   58.4465   -5.6226 O   0  0  0  0  0  0
   -1.8210   57.1070   -5.0185 O   0  0  0  0  0  0
   -1.6417   58.0742   -2.3032 O   0  0  0  0  0  0
   -0.6933   61.9326   -4.2306 O   0  0  0  0  0  0
   -0.0219   60.5014   -6.8977 H   0  0  0  0  0  0
   -3.7857   60.5694   -8.1822 H   0  0  0  0  0  0
   -1.2431   64.2137   -7.5965 H   0  0  0  0  0  0
   -3.7216   57.5880   -5.8433 H   0  0  0  0  0  0
   -1.2951   57.1204   -5.8300 H   0  0  0  0  0  0
   -0.9678   58.7744   -2.4036 H   0  0  0  0  0  0
   -7.7421   62.2753   -6.2366 H   0  0  0  0  0  0
  1 13  2  0  0  0
  1 14  1  0  0  0
  2  1  1  0  0  0
  2  3  1  0  0  0
  2 15  1  0  0  0
  2 17  1  0  0  0
  3  4  1  0  0  0
  4  5  1  0  0  0
  4 16  1  0  0  0
  5  6  1  0  0  0
  5 12  1  0  0  0
  6  7  1  0  0  0
  6 17  1  0  0  0
  7  8  1  0  0  0
  7 18  1  0  0  0
  8  9  1  0  0  0
  8 19  1  0  0  0
  9 20  1  0  0  0
 10 11  1  0  0  0
 10 12  1  0  0  0
 10 21  2  0  0  0
 12 22  1  0  0  0
 14 28  1  0  0  0
 15 23  1  0  0  0
 16 24  1  0  0  0
 18 25  1  0  0  0
 19 26  1  0  0  0
 20 27  1  0  0  0
M  END
>  <CHROM.0>
-59.22901422,-54.95396103,121.41687095,72.20711956,-77.23952543,-166.45224937
105.62480612,179.16007079,91.17526813

>  <CHROM.1>
177.10885897,70.33682697,-171.05443246,64.08092625,62.69003394,94.24215547
74.47972714,171.02708826,-175.67053780,67.41183718,64.37144145,-2.83850751
60.72852752,-5.89833443,2.38724283,-0.22915055,-0.56933377

>  <FORMUL>
      SIA    C11 H19 N1 O9

>  <HET>
 SIA  A 467      39

>  <HETNAM>
     SIA O-SIALIC ACID

>  <Name>
SIA.pdb

>  <RI>
0

>  <Rbt.Current_Directory>
/home/malgorzata/Desktop/rDOCK_IFD/Wyniki/12_neuraminidase/IFD

>  <Rbt.Executable>
rbdock ($Id: //depot/dev/client3/rdock/2013.1/src/exe/rbdock.cxx#4 $)

>  <Rbt.Library>
libRbt.so (2013.1, Build901 2013/11/27)

>  <Rbt.Parameter_File>
/home/malgorzata/Desktop/rDock_2013.1_src/data/scripts/dock.prm

>  <Rbt.Receptor>
cavity.prm

>  <SCORE>
-54.0347

>  <SCORE.INTER>
-16.2535

>  <SCORE.INTER.CONST>
1

>  <SCORE.INTER.POLAR>
-4.0996

>  <SCORE.INTER.REPUL>
0

>  <SCORE.INTER.ROT>
5

>  <SCORE.INTER.VDW>
-12.7149

>  <SCORE.INTER.norm>
-0.773978

>  <SCORE.INTRA>
-12.0511

>  <SCORE.INTRA.DIHEDRAL>
-15.9477

>  <SCORE.INTRA.DIHEDRAL.0>
24.6845

>  <SCORE.INTRA.POLAR>
0.932987

>  <SCORE.INTRA.POLAR.0>
-0.967721

>  <SCORE.INTRA.REPUL>
0

>  <SCORE.INTRA.REPUL.0>
0

>  <SCORE.INTRA.VDW>
-7.24942

>  <SCORE.INTRA.VDW.0>
7.44847

>  <SCORE.INTRA.norm>
-0.573862

>  <SCORE.RESTR>
0

>  <SCORE.RESTR.CAVITY>
0

>  <SCORE.RESTR.norm>
0

>  <SCORE.SYSTEM>
-25.73

>  <SCORE.SYSTEM.CONST>
0

>  <SCORE.SYSTEM.DIHEDRAL>
2.52094

>  <SCORE.SYSTEM.POLAR>
-6.84974

>  <SCORE.SYSTEM.VDW>
-3.70141

>  <SCORE.SYSTEM.norm>
-1.22524

>  <SCORE.heavy>
21

>  <SCORE.norm>
-2.57308

$$$$
SIA.pdb
  rDOCK(R)          3D
libRbt.so/2013.1/901 2013/11/27
 28 28  0  0  0  0  0  0  0  0999 V2000
    2.9738   59.1194   -6.4072 C   0  0  0  0  0  0
    1.9243   60.2329   -6.3648 C   0  0  0  0  0  0
    2.1168   61.6921   -6.7577 C   0  0  0  0  0  0
    0.8167   62.3733   -7.1564 C   0  0  0  0  0  0
   -0.4046   61.6992   -6.5370 C   0  0  0  0  0  0
   -0.4766   60.2548   -7.0425 C   0  0  0  0  0  0
   -1.6147   59.4716   -6.3619 C   0  0  0  0  0  0
   -1.8326   58.0951   -6.9933 C   0  0  0  0  0  0
   -0.6735   57.0835   -6.8167 C   0  0  0  0  0  0
   -2.5168   63.0584   -6.3467 C   0  0  0  0  0  0
   -3.5208   63.8410   -7.1765 C   0  0  0  0  0  0
   -1.5361   62.4768   -7.0091 N   0  0  0  0  0  0
    3.0066   58.5617   -7.5198 O   0  0  0  0  0  0
    3.7029   58.6070   -5.5376 O   0  0  0  0  0  0
    1.5835   59.8419   -5.0326 O   0  0  0  0  0  0
    0.8738   63.6924   -6.6657 O   0  0  0  0  0  0
    0.7237   59.5287   -6.7049 O   0  0  0  0  0  0
   -1.3392   59.2370   -4.9902 O   0  0  0  0  0  0
   -2.9389   57.5637   -6.2996 O   0  0  0  0  0  0
   -1.0230   55.8114   -7.3400 O   0  0  0  0  0  0
   -2.5959   62.9230   -5.1246 O   0  0  0  0  0  0
   -1.4507   62.5917   -7.9866 H   0  0  0  0  0  0
    0.6230   60.0138   -4.9908 H   0  0  0  0  0  0
    0.7607   63.6344   -5.6960 H   0  0  0  0  0  0
   -2.2770   58.9561   -4.9126 H   0  0  0  0  0  0
   -3.6819   58.1050   -6.5999 H   0  0  0  0  0  0
   -1.7939   55.6142   -6.7730 H   0  0  0  0  0  0
    4.3647   57.9912   -5.7845 H   0  0  0  0  0  0
  1 13  2  0  0  0
  1 14  1  0  0  0
  2  1  1  0  0  0
  2  3  1  0  0  0
  2 15  1  0  0  0
  2 17  1  0  0  0
  3  4  1  0  0  0
  4  5  1  0  0  0
  4 16  1  0  0  0
  5  6  1  0  0  0
  5 12  1  0  0  0
  6  7  1  0  0  0
  6 17  1  0  0  0
  7  8  1  0  0  0
  7 18  1  0  0  0
  8  9  1  0  0  0
  8 19  1  0  0  0
  9 20  1  0  0  0
 10 11  1  0  0  0
 10 12  1  0  0  0
 10 21  2  0  0  0
 12 22  1  0  0  0
 14 28  1  0  0  0
 15 23  1  0  0  0
 16 24  1  0  0  0
 18 25  1  0  0  0
 19 26  1  0  0  0
 20 27  1  0  0  0
M  END
>  <CHROM.0>
66.02196257,62.34915265,113.14270089,72.26411458,33.87866575,-175.99651931
-37.10452534,170.95775790,-85.32814022

>  <CHROM.1>
-172.79745120,-87.90339392,-145.81125042,-72.77741354,-126.67804263,171.78276965
66.24088933,168.29232642,175.13399989,69.77108765,-60.72590781,-0.13874912
60.18762702,-6.45523236,-1.01249560,-0.01275253,0.01819412

>  <FORMUL>
      SIA    C11 H19 N1 O9

>  <HET>
 SIA  A 467      39

>  <HETNAM>
     SIA O-SIALIC ACID

>  <Name>
SIA.pdb

>  <RI>
0

>  <Rbt.Current_Directory>
/home/malgorzata/Desktop/rDOCK_IFD/Wyniki/12_neuraminidase/IFD

>  <Rbt.Executable>
rbdock ($Id: //depot/dev/client3/rdock/2013.1/src/exe/rbdock.cxx#4 $)

>  <Rbt.Library>
libRbt.so (2013.1, Build901 2013/11/27)

>  <Rbt.Parameter_File>
/home/malgorzata/Desktop/rDock_2013.1_src/data/scripts/dock.prm

>  <Rbt.Receptor>
cavity.prm

>  <SCORE>
-50.2036

>  <SCORE.INTER>
-13.3259

>  <SCORE.INTER.CONST>
1

>  <SCORE.INTER.POLAR>
-3.46868

>  <SCORE.INTER.REPUL>
0.100334

>  <SCORE.INTER.ROT>
5

>  <SCORE.INTER.VDW>
-12.4341

>  <SCORE.INTER.norm>
-0.634569

>  <SCORE.INTRA>
-15.2113

>  <SCORE.INTRA.DIHEDRAL>
-16.1878

>  <SCORE.INTRA.DIHEDRAL.0>
24.6845

>  <SCORE.INTRA.POLAR>
-0.105084

>  <SCORE.INTRA.POLAR.0>
-0.967721

>  <SCORE.INTRA.REPUL>
0

>  <SCORE.INTRA.REPUL.0>
0

>  <SCORE.INTRA.VDW>
-6.7601

>  <SCORE.INTRA.VDW.0>
7.44847

>  <SCORE.INTRA.norm>
-0.724347

>  <SCORE.RESTR>
0.0923918

>  <SCORE.RESTR.CAVITY>
0.0923918

>  <SCORE.RESTR.norm>
0.00439961

>  <SCORE.SYSTEM>
-21.7588

>  <SCORE.SYSTEM.CONST>
0

>  <SCORE.SYSTEM.DIHEDRAL>
2.78218

>  <SCORE.SYSTEM.POLAR>
-7.15914

>  <SCORE.SYSTEM.VDW>
1.19118

>  <SCORE.SYSTEM.norm>
-1.03613

>  <SCORE.heavy>
21

>  <SCORE.norm>
-2.39065

$$$$
SIA.pdb
  rDOCK(R)          3D
libRbt.so/2013.1/901 2013/11/27
 28 28  0  0  0  0  0  0  0  0999 V2000
   -0.8799   59.3377   -6.3080 C   0  0  0  0  0  0
   -1.8942   59.0203   -7.4097 C   0  0  0  0  0  0
   -2.4802   59.9916   -8.4264 C   0  0  0  0  0  0
   -2.9669   59.3011   -9.6912 C   0  0  0  0  0  0
   -3.3157   57.8344   -9.4534 C   0  0  0  0  0  0
   -2.0533   57.0986   -8.9927 C   0  0  0  0  0  0
   -2.3555   55.6372   -8.6122 C   0  0  0  0  0  0
   -2.7657   54.7938   -9.8210 C   0  0  0  0  0  0
   -1.6778   54.6009  -10.9061 C   0  0  0  0  0  0
   -4.9693   57.3143  -11.2810 C   0  0  0  0  0  0
   -5.0642   56.7663  -12.6952 C   0  0  0  0  0  0
   -3.7649   57.3464  -10.7449 N   0  0  0  0  0  0
    0.2850   59.3527   -6.7471 O   0  0  0  0  0  0
   -0.9814   59.4724   -5.0744 O   0  0  0  0  0  0
   -2.7064   58.3434   -6.4475 O   0  0  0  0  0  0
   -4.1430   59.9617  -10.0964 O   0  0  0  0  0  0
   -1.5205   57.6901   -7.7894 O   0  0  0  0  0  0
   -1.2192   54.9979   -8.0527 O   0  0  0  0  0  0
   -3.0280   53.5171   -9.2836 O   0  0  0  0  0  0
   -1.4977   55.7874  -11.6638 O   0  0  0  0  0  0
   -5.9427   57.6881  -10.6246 O   0  0  0  0  0  0
   -2.9737   57.0664  -11.2660 H   0  0  0  0  0  0
   -3.3568   57.8699   -7.0013 H   0  0  0  0  0  0
   -3.8828   60.8741  -10.3336 H   0  0  0  0  0  0
   -1.8160   54.2428   -7.8573 H   0  0  0  0  0  0
   -3.3798   53.0183  -10.0337 H   0  0  0  0  0  0
   -0.7841   55.4870  -12.2596 H   0  0  0  0  0  0
   -1.8263   59.4592   -4.6696 H   0  0  0  0  0  0
  1 13  2  0  0  0
  1 14  1  0  0  0
  2  1  1  0  0  0
  2  3  1  0  0  0
  2 15  1  0  0  0
  2 17  1  0  0  0
  3  4  1  0  0  0
  4  5  1  0  0  0
  4 16  1  0  0  0
  5  6  1  0  0  0
  5 12  1  0  0  0
  6  7  1  0  0  0
  6 17  1  0  0  0
  7  8  1  0  0  0
  7 18  1  0  0  0
  8  9  1  0  0  0
  8 19  1  0  0  0
  9 20  1  0  0  0
 10 11  1  0  0  0
 10 12  1  0  0  0
 10 21  2  0  0  0
 12 22  1  0  0  0
 14 28  1  0  0  0
 15 23  1  0  0  0
 16 24  1  0  0  0
 18 25  1  0  0  0
 19 26  1  0  0  0
 20 27  1  0  0  0
M  END
>  <CHROM.0>
67.74444177,-55.52131424,157.32242360,69.95438933,-67.77979114,-81.32472175
111.03327026,177.07597735,-85.34369635

>  <CHROM.1>
-6.03961690,-81.82863398,-167.80349913,64.76384105,-90.18305024,67.14541310
64.56237670,172.76415407,-74.20011237,173.93353739,178.71219228,-2.60485801
57.39250526,-9.03878047,-0.92045545,0.82888945,-2.69588991

>  <FORMUL>
      SIA    C11 H19 N1 O9

>  <HET>
 SIA  A 467      39

>  <HETNAM>
     SIA O-SIALIC ACID

>  <Name>
SIA.pdb

>  <RI>
0

>  <Rbt.Current_Directory>
/home/malgorzata/Desktop/rDOCK_IFD/Wyniki/12_neuraminidase/IFD

>  <Rbt.Executable>
rbdock ($Id: //depot/dev/client3/rdock/2013.1/src/exe/rbdock.cxx#4 $)

>  <Rbt.Library>
libRbt.so (2013.1, Build901 2013/11/27)

>  <Rbt.Parameter_File>
/home/malgorzata/Desktop/rDock_2013.1_src/data/scripts/dock.prm

>  <Rbt.Receptor>
cavity.prm

>  <SCORE>
-52.9744

>  <SCORE.INTER>
-8.37389

>  <SCORE.INTER.CONST>
1

>  <SCORE.INTER.POLAR>
-2.8436

>  <SCORE.INTER.REPUL>
0.289438

>  <SCORE.INTER.ROT>
5

>  <SCORE.INTER.VDW>
-10.5528

>  <SCORE.INTER.norm>
-0.398757

>  <SCORE.INTRA>
-19.0594

>  <SCORE.INTRA.DIHEDRAL>
-19.8565

>  <SCORE.INTRA.DIHEDRAL.0>
24.6845

>  <SCORE.INTRA.POLAR>
-0.408001

>  <SCORE.INTRA.POLAR.0>
-0.967721

>  <SCORE.INTRA.REPUL>
0

>  <SCORE.INTRA.REPUL.0>
0

>  <SCORE.INTRA.VDW>
-7.74395

>  <SCORE.INTRA.VDW.0>
7.44847

>  <SCORE.INTRA.norm>
-0.907589

>  <SCORE.RESTR>
0

>  <SCORE.RESTR.CAVITY>
0

>  <SCORE.RESTR.norm>
0

>  <SCORE.SYSTEM>
-25.5411

>  <SCORE.SYSTEM.CONST>
0

>  <SCORE.SYSTEM.DIHEDRAL>
2.8591

>  <SCORE.SYSTEM.POLAR>
-7.1504

>  <SCORE.SYSTEM.VDW>
-2.6593

>  <SCORE.SYSTEM.norm>
-1.21624

>  <SCORE.heavy>
21

>  <SCORE.norm>
-2.52259

$$$$
SIA.pdb
  rDOCK(R)          3D
libRbt.so/2013.1/901 2013/11/27
 28 28  0  0  0  0  0  0  0  0999 V2000
   -1.7696   56.1293   -6.7269 C   0  0  0  0  0  0
   -1.9268   57.6250   -7.0121 C   0  0  0  0  0  0
   -3.0324   58.2953   -7.8178 C   0  0  0  0  0  0
   -3.2383   59.7540   -7.4394 C   0  0  0  0  0  0
   -1.9873   60.3754   -6.8242 C   0  0  0  0  0  0
   -1.6452   59.6175   -5.5375 C   0  0  0  0  0  0
   -0.3201   60.1084   -4.9252 C   0  0  0  0  0  0
    0.7092   60.4868   -5.9920 C   0  0  0  0  0  0
    1.9233   61.3085   -5.4931 C   0  0  0  0  0  0
   -3.3974   62.2456   -5.8975 C   0  0  0  0  0  0
   -3.4400   63.7572   -5.7470 C   0  0  0  0  0  0
   -2.3580   61.7501   -6.5401 N   0  0  0  0  0  0
   -1.9466   55.4455   -7.7522 O   0  0  0  0  0  0
   -1.6111   55.4776   -5.6780 O   0  0  0  0  0  0
   -0.5549   57.6790   -7.4103 O   0  0  0  0  0  0
   -3.5246   60.4530   -8.6282 O   0  0  0  0  0  0
   -1.4309   58.2159   -5.8047 O   0  0  0  0  0  0
   -0.5101   61.2688   -4.1315 O   0  0  0  0  0  0
    1.2177   59.2509   -6.4410 O   0  0  0  0  0  0
    2.8003   60.5039   -4.7201 O   0  0  0  0  0  0
   -4.2801   61.4912   -5.4853 O   0  0  0  0  0  0
   -1.6345   62.3417   -6.8603 H   0  0  0  0  0  0
   -0.5860   57.4062   -8.3476 H   0  0  0  0  0  0
   -2.7334   60.3712   -9.1973 H   0  0  0  0  0  0
   -0.9455   60.6774   -3.4795 H   0  0  0  0  0  0
    0.5168   58.9058   -7.0110 H   0  0  0  0  0  0
    2.2003   60.2813   -3.9819 H   0  0  0  0  0  0
   -1.5900   55.9182   -4.8513 H   0  0  0  0  0  0
  1 13  2  0  0  0
  1 14  1  0  0  0
  2  1  1  0  0  0
  2  3  1  0  0  0
  2 15  1  0  0  0
  2 17  1  0  0  0
  3  4  1  0  0  0
  4  5  1  0  0  0
  4 16  1  0  0  0
  5  6  1  0  0  0
  5 12  1  0  0  0
  6  7  1  0  0  0
  6 17  1  0  0  0
  7  8  1  0  0  0
  7 18  1  0  0  0
  8  9  1  0  0  0
  8 19  1  0  0  0
  9 20  1  0  0  0
 10 11  1  0  0  0
 10 12  1  0  0  0
 10 21  2  0  0  0
 12 22  1  0  0  0
 14 28  1  0  0  0
 15 23  1  0  0  0
 16 24  1  0  0  0
 18 25  1  0  0  0
 19 26  1  0  0  0
 20 27  1  0  0  0
M  END
>  <CHROM.0>
-60.85647755,61.47102878,57.52265549,67.01933209,-69.27965549,-178.41283842
110.85801840,179.56681664,90.23677434

>  <CHROM.1>
1.48384154,45.54587085,84.77786958,-62.84677353,50.80467441,-35.72810757
165.50892816,72.00472679,71.97670572,76.22233381,-63.09451118,-1.39728038
59.56122468,-6.27717133,1.54137834,0.34147508,-2.89589115

>  <FORMUL>
      SIA    C11 H19 N1 O9

>  <HET>
 SIA  A 467      39

>  <HETNAM>
     SIA O-SIALIC ACID

>  <Name>
SIA.pdb

>  <RI>
0

>  <Rbt.Current_Directory>
/home/malgorzata/Desktop/rDOCK_IFD/Wyniki/12_neuraminidase/IFD

>  <Rbt.Executable>
rbdock ($Id: //depot/dev/client3/rdock/2013.1/src/exe/rbdock.cxx#4 $)

>  <Rbt.Library>
libRbt.so (2013.1, Build901 2013/11/27)

>  <Rbt.Parameter_File>
/home/malgorzata/Desktop/rDock_2013.1_src/data/scripts/dock.prm

>  <Rbt.Receptor>
cavity.prm

>  <SCORE>
-49.9563

>  <SCORE.INTER>
-7.82296

>  <SCORE.INTER.CONST>
1

>  <SCORE.INTER.POLAR>
-2.30896

>  <SCORE.INTER.REPUL>
0.0942273

>  <SCORE.INTER.ROT>
5

>  <SCORE.INTER.VDW>
-10.8436

>  <SCORE.INTER.norm>
-0.372522

>  <SCORE.INTRA>
-15.8266

>  <SCORE.INTRA.DIHEDRAL>
-15.0796

>  <SCORE.INTRA.DIHEDRAL.0>
24.6845

>  <SCORE.INTRA.POLAR>
-0.0383735

>  <SCORE.INTRA.POLAR.0>
-0.967721

>  <SCORE.INTRA.REPUL>
0

>  <SCORE.INTRA.REPUL.0>
0

>  <SCORE.INTRA.VDW>
-8.15629

>  <SCORE.INTRA.VDW.0>
7.44847

>  <SCORE.INTRA.norm>
-0.753647

>  <SCORE.RESTR>
0

>  <SCORE.RESTR.CAVITY>
0

>  <SCORE.RESTR.norm>
0

>  <SCORE.SYSTEM>
-26.3068

>  <SCORE.SYSTEM.CONST>
0

>  <SCORE.SYSTEM.DIHEDRAL>
2.3975

>  <SCORE.SYSTEM.POLAR>
-6.95882

>  <SCORE.SYSTEM.VDW>
-3.84552

>  <SCORE.SYSTEM.norm>
-1.2527

>  <SCORE.heavy>
21

>  <SCORE.norm>
-2.37887

$$$$
SIA.pdb
  rDOCK(R)          3D
libRbt.so/2013.1/901 2013/11/27
 28 28  0  0  0  0  0  0  0  0999 V2000
   -1.6487   59.6718   -4.7795 C   0  0  0  0  0  0
   -2.5125   59.3157   -5.9921 C   0  0  0  0  0  0
   -3.0401   60.2698   -7.0560 C   0  0  0  0  0  0
   -3.3393   59.5761   -8.3761 C   0  0  0  0  0  0
   -3.6217   58.0868   -8.1974 C   0  0  0  0  0  0
   -2.3757   57.4189   -7.6068 C   0  0  0  0  0  0
   -2.6281   55.9350   -7.2809 C   0  0  0  0  0  0
   -2.7290   55.0716   -8.5399 C   0  0  0  0  0  0
   -2.2988   53.5929   -8.3770 C   0  0  0  0  0  0
   -3.2743   57.8273  -10.6786 C   0  0  0  0  0  0
   -3.8147   57.0987  -11.8978 C   0  0  0  0  0  0
   -3.8933   57.5979   -9.5371 N   0  0  0  0  0  0
   -0.9842   60.7059   -4.9771 O   0  0  0  0  0  0
   -1.4075   59.0855   -3.7080 O   0  0  0  0  0  0
   -3.3838   58.5732   -5.1359 O   0  0  0  0  0  0
   -4.5013   60.1730   -8.9027 O   0  0  0  0  0  0
   -2.0178   58.0178   -6.3439 O   0  0  0  0  0  0
   -1.5737   55.3837   -6.5083 O   0  0  0  0  0  0
   -4.1053   55.0584   -8.8452 O   0  0  0  0  0  0
   -0.9143   53.4945   -8.0810 O   0  0  0  0  0  0
   -2.3329   58.6213  -10.7168 O   0  0  0  0  0  0
   -4.6379   56.9505   -9.4889 H   0  0  0  0  0  0
   -3.8503   59.2711   -4.6365 H   0  0  0  0  0  0
   -5.2091   60.0364   -8.2417 H   0  0  0  0  0  0
   -1.7770   56.0796   -5.8457 H   0  0  0  0  0  0
   -4.4958   54.5379   -8.1298 H   0  0  0  0  0  0
   -0.8822   54.0631   -7.2871 H   0  0  0  0  0  0
   -1.8973   58.3227   -3.4707 H   0  0  0  0  0  0
  1 13  2  0  0  0
  1 14  1  0  0  0
  2  1  1  0  0  0
  2  3  1  0  0  0
  2 15  1  0  0  0
  2 17  1  0  0  0
  3  4  1  0  0  0
  4  5  1  0  0  0
  4 16  1  0  0  0
  5  6  1  0  0  0
  5 12  1  0  0  0
  6  7  1  0  0  0
  6 17  1  0  0  0
  7  8  1  0  0  0
  7 18  1  0  0  0
  8  9  1  0  0  0
  8 19  1  0  0  0
  9 20  1  0  0  0
 10 11  1  0  0  0
 10 12  1  0  0  0
 10 21  2  0  0  0
 12 22  1  0  0  0
 14 28  1  0  0  0
 15 23  1  0  0  0
 16 24  1  0  0  0
 18 25  1  0  0  0
 19 26  1  0  0  0
 20 27  1  0  0  0
M  END
>  <CHROM.0>
-178.20540210,62.26864171,-132.51066589,70.07852189,-77.75029468,-134.39763198
-59.84371374,55.30346627,-84.12605069

>  <CHROM.1>
-9.81119316,-25.65177017,72.09188396,-59.56807296,44.29988681,72.05044717
151.42362347,58.61745902,-65.19442048,-68.96390064,55.70459477,-2.68315364
57.61439967,-7.65112476,-1.21546682,1.15697585,-2.66428958

>  <FORMUL>
      SIA    C11 H19 N1 O9

>  <HET>
 SIA  A 467      39

>  <HETNAM>
     SIA O-SIALIC ACID

>  <Name>
SIA.pdb

>  <RI>
0

>  <Rbt.Current_Directory>
/home/malgorzata/Desktop/rDOCK_IFD/Wyniki/12_neuraminidase/IFD

>  <Rbt.Executable>
rbdock ($Id: //depot/dev/client3/rdock/2013.1/src/exe/rbdock.cxx#4 $)

>  <Rbt.Library>
libRbt.so (2013.1, Build901 2013/11/27)

>  <Rbt.Parameter_File>
/home/malgorzata/Desktop/rDock_2013.1_src/data/scripts/dock.prm

>  <Rbt.Receptor>
cavity.prm

>  <SCORE>
-51.3935

>  <SCORE.INTER>
-12.7142

>  <SCORE.INTER.CONST>
1

>  <SCORE.INTER.POLAR>
-2.8546

>  <SCORE.INTER.REPUL>
0.136075

>  <SCORE.INTER.ROT>
5

>  <SCORE.INTER.VDW>
-14.089

>  <SCORE.INTER.norm>
-0.60544

>  <SCORE.INTRA>
-16.2112

>  <SCORE.INTRA.DIHEDRAL>
-18.1621

>  <SCORE.INTRA.DIHEDRAL.0>
24.6845

>  <SCORE.INTRA.POLAR>
-0.683662

>  <SCORE.INTRA.POLAR.0>
-0.967721

>  <SCORE.INTRA.REPUL>
0

>  <SCORE.INTRA.REPUL.0>
0

>  <SCORE.INTRA.VDW>
-4.80568

>  <SCORE.INTRA.VDW.0>
7.44847

>  <SCORE.INTRA.norm>
-0.771961

>  <SCORE.RESTR>
0

>  <SCORE.RESTR.CAVITY>
0

>  <SCORE.RESTR.norm>
0

>  <SCORE.SYSTEM>
-22.468

>  <SCORE.SYSTEM.CONST>
0

>  <SCORE.SYSTEM.DIHEDRAL>
5.71996

>  <SCORE.SYSTEM.POLAR>
-6.83431

>  <SCORE.SYSTEM.VDW>
-2.09137

>  <SCORE.SYSTEM.norm>
-1.06991

>  <SCORE.heavy>
21

>  <SCORE.norm>
-2.44731

$$$$
SIA.pdb
  rDOCK(R)          3D
libRbt.so/2013.1/901 2013/11/27
 28 28  0  0  0  0  0  0  0  0999 V2000
   -7.2371   58.1778   -8.0796 C   0  0  0  0  0  0
   -6.1010   57.2357   -8.4858 C   0  0  0  0  0  0
   -5.8831   56.5942   -9.8502 C   0  0  0  0  0  0
   -4.4309   56.2180  -10.1014 C   0  0  0  0  0  0
   -3.6553   56.0025   -8.8047 C   0  0  0  0  0  0
   -3.6530   57.3130   -8.0110 C   0  0  0  0  0  0
   -2.9946   57.1386   -6.6298 C   0  0  0  0  0  0
   -1.4749   57.3068   -6.6839 C   0  0  0  0  0  0
   -0.9615   58.7671   -6.7296 C   0  0  0  0  0  0
   -1.5910   54.5703   -8.9838 C   0  0  0  0  0  0
   -0.2226   54.5118   -9.6420 C   0  0  0  0  0  0
   -2.3141   55.6451   -9.2303 N   0  0  0  0  0  0
   -6.8641   59.3655   -8.0616 O   0  0  0  0  0  0
   -8.3967   57.9819   -7.6710 O   0  0  0  0  0  0
   -6.3427   56.4598   -7.3097 O   0  0  0  0  0  0
   -4.4358   54.9985  -10.8063 O   0  0  0  0  0  0
   -4.9992   57.7466   -7.7255 O   0  0  0  0  0  0
   -3.4652   58.1030   -5.7018 O   0  0  0  0  0  0
   -1.0190   56.7585   -5.4677 O   0  0  0  0  0  0
   -0.9502   59.3442   -5.4330 O   0  0  0  0  0  0
   -2.0257   53.6986   -8.2292 O   0  0  0  0  0  0
   -1.9852   56.3431   -9.8472 H   0  0  0  0  0  0
   -7.0881   55.8862   -7.5727 H   0  0  0  0  0  0
   -3.5058   54.8090  -11.0421 H   0  0  0  0  0  0
   -3.0353   57.5563   -5.0084 H   0  0  0  0  0  0
   -0.6827   55.8872   -5.7186 H   0  0  0  0  0  0
   -0.6785   60.2529   -5.6674 H   0  0  0  0  0  0
   -8.7504   57.1142   -7.6632 H   0  0  0  0  0  0
  1 13  2  0  0  0
  1 14  1  0  0  0
  2  1  1  0  0  0
  2  3  1  0  0  0
  2 15  1  0  0  0
  2 17  1  0  0  0
  3  4  1  0  0  0
  4  5  1  0  0  0
  4 16  1  0  0  0
  5  6  1  0  0  0
  5 12  1  0  0  0
  6  7  1  0  0  0
  6 17  1  0  0  0
  7  8  1  0  0  0
  7 18  1  0  0  0
  8  9  1  0  0  0
  8 19  1  0  0  0
  9 20  1  0  0  0
 10 11  1  0  0  0
 10 12  1  0  0  0
 10 21  2  0  0  0
 12 22  1  0  0  0
 14 28  1  0  0  0
 15 23  1  0  0  0
 16 24  1  0  0  0
 18 25  1  0  0  0
 19 26  1  0  0  0
 20 27  1  0  0  0
M  END
>  <CHROM.0>
-60.60265043,63.53791935,-63.96145115,-67.14119614,-73.98488158,-166.56270478
106.46189982,-170.70042105,-84.40598116

>  <CHROM.1>
-7.51848773,-101.62832150,82.24956140,174.44710055,-121.79775577,85.80151483
79.16338737,167.51758907,80.72287473,102.04557701,-175.67092808,-3.76361672
56.86858155,-7.93096961,-3.07637730,0.26541653,-2.36267799

>  <FORMUL>
      SIA    C11 H19 N1 O9

>  <HET>
 SIA  A 467      39

>  <HETNAM>
     SIA O-SIALIC ACID

>  <Name>
SIA.pdb

>  <RI>
0

>  <Rbt.Current_Directory>
/home/malgorzata/Desktop/rDOCK_IFD/Wyniki/12_neuraminidase/IFD

>  <Rbt.Executable>
rbdock ($Id: //depot/dev/client3/rdock/2013.1/src/exe/rbdock.cxx#4 $)

>  <Rbt.Library>
libRbt.so (2013.1, Build901 2013/11/27)

>  <Rbt.Parameter_File>
/home/malgorzata/Desktop/rDock_2013.1_src/data/scripts/dock.prm

>  <Rbt.Receptor>
cavity.prm

>  <SCORE>
-54.3578

>  <SCORE.INTER>
-18.0122

>  <SCORE.INTER.CONST>
1

>  <SCORE.INTER.POLAR>
-3.72183

>  <SCORE.INTER.REPUL>
0.176083

>  <SCORE.INTER.ROT>
5

>  <SCORE.INTER.VDW>
-16.6384

>  <SCORE.INTER.norm>
-0.857723

>  <SCORE.INTRA>
-10.3739

>  <SCORE.INTRA.DIHEDRAL>
-10.0183

>  <SCORE.INTRA.DIHEDRAL.0>
24.6845

>  <SCORE.INTRA.POLAR>
0.817677

>  <SCORE.INTRA.POLAR.0>
-0.967721

>  <SCORE.INTRA.REPUL>
0

>  <SCORE.INTRA.REPUL.0>
0

>  <SCORE.INTRA.VDW>
-8.14484

>  <SCORE.INTRA.VDW.0>
7.44847

>  <SCORE.INTRA.norm>
-0.493995

>  <SCORE.RESTR>
0

>  <SCORE.RESTR.CAVITY>
0

>  <SCORE.RESTR.norm>
0

>  <SCORE.SYSTEM>
-25.9717

>  <SCORE.SYSTEM.CONST>
0

>  <SCORE.SYSTEM.DIHEDRAL>
2.63542

>  <SCORE.SYSTEM.POLAR>
-7.27206

>  <SCORE.SYSTEM.VDW>
-2.56442

>  <SCORE.SYSTEM.norm>
-1.23675

>  <SCORE.heavy>
21

>  <SCORE.norm>
-2.58847

$$$$
SIA.pdb
  rDOCK(R)          3D
libRbt.so/2013.1/901 2013/11/27
 28 28  0  0  0  0  0  0  0  0999 V2000
   -2.2548   58.3439   -3.9993 C   0  0  0  0  0  0
   -2.0717   58.9251   -5.4036 C   0  0  0  0  0  0
   -3.1679   59.3629   -6.3666 C   0  0  0  0  0  0
   -2.6894   60.3938   -7.3775 C   0  0  0  0  0  0
   -1.1820   60.3252   -7.6063 C   0  0  0  0  0  0
   -0.4710   60.6247   -6.2826 C   0  0  0  0  0  0
    1.0543   60.4507   -6.4059 C   0  0  0  0  0  0
    1.7699   61.7728   -6.6897 C   0  0  0  0  0  0
    2.4510   61.8843   -8.0760 C   0  0  0  0  0  0
   -1.2713   62.6228   -8.6348 C   0  0  0  0  0  0
   -0.7587   63.4318   -9.8147 C   0  0  0  0  0  0
   -0.9097   61.3554   -8.5923 N   0  0  0  0  0  0
   -3.4583   58.1914   -3.7190 O   0  0  0  0  0  0
   -1.4614   58.1032   -3.0705 O   0  0  0  0  0  0
   -1.1686   57.8605   -5.7112 O   0  0  0  0  0  0
   -3.3230   60.0986   -8.6004 O   0  0  0  0  0  0
   -0.8673   59.6878   -5.2595 O   0  0  0  0  0  0
    1.6204   59.9452   -5.2073 O   0  0  0  0  0  0
    0.7426   62.7380   -6.6679 O   0  0  0  0  0  0
    1.6133   61.3677   -9.0984 O   0  0  0  0  0  0
   -2.0119   63.0786   -7.7619 O   0  0  0  0  0  0
   -0.3021   60.9815   -9.2757 H   0  0  0  0  0  0
   -0.8151   58.1163   -6.5850 H   0  0  0  0  0  0
   -3.1026   60.8291   -9.2121 H   0  0  0  0  0  0
    2.4280   59.7654   -5.7363 H   0  0  0  0  0  0
    0.4603   62.7544   -5.7431 H   0  0  0  0  0  0
    1.6141   60.4251   -8.8415 H   0  0  0  0  0  0
   -1.7880   57.8667   -2.2247 H   0  0  0  0  0  0
  1 13  2  0  0  0
  1 14  1  0  0  0
  2  1  1  0  0  0
  2  3  1  0  0  0
  2 15  1  0  0  0
  2 17  1  0  0  0
  3  4  1  0  0  0
  4  5  1  0  0  0
  4 16  1  0  0  0
  5  6  1  0  0  0
  5 12  1  0  0  0
  6  7  1  0  0  0
  6 17  1  0  0  0
  7  8  1  0  0  0
  7 18  1  0  0  0
  8  9  1  0  0  0
  8 19  1  0  0  0
  9 20  1  0  0  0
 10 11  1  0  0  0
 10 12  1  0  0  0
 10 21  2  0  0  0
 12 22  1  0  0  0
 14 28  1  0  0  0
 15 23  1  0  0  0
 16 24  1  0  0  0
 18 25  1  0  0  0
 19 26  1  0  0  0
 20 27  1  0  0  0
M  END
>  <CHROM.0>
70.77216973,65.89492908,89.37028878,-62.32173670,-87.16405473,2.15977905
109.16192308,-178.87642347,92.01084797

>  <CHROM.1>
170.36509006,3.37726763,-172.47549922,172.86337526,49.52490428,95.71749370
-113.62983067,166.10639469,43.19792352,67.59890474,-66.82618722,-0.82692426
60.48855203,-6.67372551,-1.99854587,-0.21004912,-0.90103955

>  <FORMUL>
      SIA    C11 H19 N1 O9

>  <HET>
 SIA  A 467      39

>  <HETNAM>
     SIA O-SIALIC ACID

>  <Name>
SIA.pdb

>  <RI>
0

>  <Rbt.Current_Directory>
/home/malgorzata/Desktop/rDOCK_IFD/Wyniki/12_neuraminidase/IFD

>  <Rbt.Executable>
rbdock ($Id: //depot/dev/client3/rdock/2013.1/src/exe/rbdock.cxx#4 $)

>  <Rbt.Library>
libRbt.so (2013.1, Build901 2013/11/27)

>  <Rbt.Parameter_File>
/home/malgorzata/Desktop/rDock_2013.1_src/data/scripts/dock.prm

>  <Rbt.Receptor>
cavity.prm

>  <SCORE>
-48.1414

>  <SCORE.INTER>
-14.2636

>  <SCORE.INTER.CONST>
1

>  <SCORE.INTER.POLAR>
-3.61684

>  <SCORE.INTER.REPUL>
0.126536

>  <SCORE.INTER.ROT>
5

>  <SCORE.INTER.VDW>
-12.999

>  <SCORE.INTER.norm>
-0.67922

>  <SCORE.INTRA>
-9.2924

>  <SCORE.INTRA.DIHEDRAL>
-10.9657

>  <SCORE.INTRA.DIHEDRAL.0>
24.6845

>  <SCORE.INTRA.POLAR>
0.615511

>  <SCORE.INTRA.POLAR.0>
-0.967721

>  <SCORE.INTRA.REPUL>
0.0523611

>  <SCORE.INTRA.REPUL.0>
0

>  <SCORE.INTRA.VDW>
-6.16407

>  <SCORE.INTRA.VDW.0>
7.44847

>  <SCORE.INTRA.norm>
-0.442495

>  <SCORE.RESTR>
0

>  <SCORE.RESTR.CAVITY>
0

>  <SCORE.RESTR.norm>
0

>  <SCORE.SYSTEM>
-24.5853

>  <SCORE.SYSTEM.CONST>
0

>  <SCORE.SYSTEM.DIHEDRAL>
3.1007

>  <SCORE.SYSTEM.POLAR>
-6.80854

>  <SCORE.SYSTEM.VDW>
-2.98665

>  <SCORE.SYSTEM.norm>
-1.17073

>  <SCORE.heavy>
21

>  <SCORE.norm>
-2.29245

$$$$
SIA.pdb
  rDOCK(R)          3D
libRbt.so/2013.1/901 2013/11/27
 28 28  0  0  0  0  0  0  0  0999 V2000
   -2.6374   59.1650   -5.7586 C   0  0  0  0  0  0
   -2.6442   57.9611   -6.7041 C   0  0  0  0  0  0
   -1.7112   56.7576   -6.6656 C   0  0  0  0  0  0
   -2.3141   55.5213   -7.3148 C   0  0  0  0  0  0
   -3.3877   55.8709   -8.3417 C   0  0  0  0  0  0
   -4.5257   56.6092   -7.6296 C   0  0  0  0  0  0
   -5.5906   57.1055   -8.6253 C   0  0  0  0  0  0
   -6.9452   57.3470   -7.9564 C   0  0  0  0  0  0
   -8.0552   57.9179   -8.8730 C   0  0  0  0  0  0
   -3.6404   54.0202  -10.0317 C   0  0  0  0  0  0
   -4.2292   52.6311  -10.2133 C   0  0  0  0  0  0
   -3.8363   54.5907   -8.8591 N   0  0  0  0  0  0
   -3.6824   59.2250   -5.0844 O   0  0  0  0  0  0
   -1.8604   60.1272   -5.6156 O   0  0  0  0  0  0
   -2.6884   58.8548   -7.8190 O   0  0  0  0  0  0
   -1.2712   54.8599   -7.9924 O   0  0  0  0  0  0
   -4.0411   57.8041   -6.9822 O   0  0  0  0  0  0
   -5.2172   58.3399   -9.2165 O   0  0  0  0  0  0
   -7.3726   56.0635   -7.5593 O   0  0  0  0  0  0
   -8.0324   57.2963  -10.1487 O   0  0  0  0  0  0
   -3.0346   54.6282  -10.9157 O   0  0  0  0  0  0
   -4.3047   54.1078   -8.1357 H   0  0  0  0  0  0
   -1.7601   59.1454   -7.9061 H   0  0  0  0  0  0
   -0.6331   54.5725   -7.3093 H   0  0  0  0  0  0
   -4.5137   57.8353   -9.6801 H   0  0  0  0  0  0
   -6.9217   55.9203   -6.7159 H   0  0  0  0  0  0
   -8.2731   56.3869   -9.8852 H   0  0  0  0  0  0
   -1.0630   60.1625   -6.1065 H   0  0  0  0  0  0
  1 13  2  0  0  0
  1 14  1  0  0  0
  2  1  1  0  0  0
  2  3  1  0  0  0
  2 15  1  0  0  0
  2 17  1  0  0  0
  3  4  1  0  0  0
  4  5  1  0  0  0
  4 16  1  0  0  0
  5  6  1  0  0  0
  5 12  1  0  0  0
  6  7  1  0  0  0
  6 17  1  0  0  0
  7  8  1  0  0  0
  7 18  1  0  0  0
  8  9  1  0  0  0
  8 19  1  0  0  0
  9 20  1  0  0  0
 10 11  1  0  0  0
 10 12  1  0  0  0
 10 21  2  0  0  0
 12 22  1  0  0  0
 14 28  1  0  0  0
 15 23  1  0  0  0
 16 24  1  0  0  0
 18 25  1  0  0  0
 19 26  1  0  0  0
 20 27  1  0  0  0
M  END
>  <CHROM.0>
-57.43012472,-53.59412410,166.22766116,65.98919260,-89.12376419,175.29678087
89.17779830,-176.02029164,92.84841968

>  <CHROM.1>
-5.39046167,-115.23898511,79.29295615,64.01068846,-108.14508659,157.93302249
176.96924830,68.97477859,41.24684652,83.02970052,65.35282125,-4.14100398
56.82203539,-8.02621833,1.01098997,-0.29520277,0.59039091

>  <FORMUL>
      SIA    C11 H19 N1 O9

>  <HET>
 SIA  A 467      39

>  <HETNAM>
     SIA O-SIALIC ACID

>  <Name>
SIA.pdb

>  <RI>
0

>  <Rbt.Current_Directory>
/home/malgorzata/Desktop/rDOCK_IFD/Wyniki/12_neuraminidase/IFD

>  <Rbt.Executable>
rbdock ($Id: //depot/dev/client3/rdock/2013.1/src/exe/rbdock.cxx#4 $)

>  <Rbt.Library>
libRbt.so (2013.1, Build901 2013/11/27)

>  <Rbt.Parameter_File>
/home/malgorzata/Desktop/rDock_2013.1_src/data/scripts/dock.prm

>  <Rbt.Receptor>
cavity.prm

>  <SCORE>
-59.6818

>  <SCORE.INTER>
-21.5671

>  <SCORE.INTER.CONST>
1

>  <SCORE.INTER.POLAR>
-4.85656

>  <SCORE.INTER.REPUL>
0.0590082

>  <SCORE.INTER.ROT>
5

>  <SCORE.INTER.VDW>
-15.7498

>  <SCORE.INTER.norm>
-1.027

>  <SCORE.INTRA>
-12.9592

>  <SCORE.INTRA.DIHEDRAL>
-16.5104

>  <SCORE.INTRA.DIHEDRAL.0>
24.6845

>  <SCORE.INTRA.POLAR>
0.967721

>  <SCORE.INTRA.POLAR.0>
-0.967721

>  <SCORE.INTRA.REPUL>
0

>  <SCORE.INTRA.REPUL.0>
0

>  <SCORE.INTRA.VDW>
-7.9942

>  <SCORE.INTRA.VDW.0>
7.44847

>  <SCORE.INTRA.norm>
-0.617103

>  <SCORE.RESTR>
0

>  <SCORE.RESTR.CAVITY>
0

>  <SCORE.RESTR.norm>
0

>  <SCORE.SYSTEM>
-25.1555

>  <SCORE.SYSTEM.CONST>
0

>  <SCORE.SYSTEM.DIHEDRAL>
2.6552

>  <SCORE.SYSTEM.POLAR>
-6.80282

>  <SCORE.SYSTEM.VDW>
-3.35357

>  <SCORE.SYSTEM.norm>
-1.19788

>  <SCORE.heavy>
21

>  <SCORE.norm>
-2.84199

$$$$
