REMARK  9 active torsions:
REMARK  status: ('A' for Active; 'I' for Inactive)
REMARK    1  A    between atoms: C1_1  and  C2_4 
REMARK    2  A    between atoms: C4_6  and  NE_29 
REMARK    3  A    between atoms: C5_7  and  N5_8 
REMARK       I    between atoms: N5_8  and  C10_10 
REMARK    4  A    between atoms: C6_13  and  C7_15 
REMARK       I    between atoms: C7_15  and  N8_17 
REMARK    5  A    between atoms: N8_17  and  C81_18 
REMARK    6  A    between atoms: N8_17  and  C9_26 
REMARK    7  A    between atoms: C81_18  and  C82_19 
REMARK    8  A    between atoms: C82_19  and  CG_20 
REMARK    9  A    between atoms: C9_26  and  C91_27 
ROOT
HETATM    1  C2  DPC A 466      -1.737  58.017  -7.212  1.00  9.12     0.144 C 
HETATM    2  C3  DPC A 466      -0.702  57.197  -6.999  1.00  7.83     0.051 C 
HETATM    3  C4  DPC A 466      -0.386  56.092  -7.970  1.00  8.13     0.234 C 
HETATM    4  C5  DPC A 466      -1.084  56.292  -9.312  1.00  4.13     0.157 C 
HETATM    5  C6  DPC A 466      -2.520  56.747  -9.064  1.00  9.37     0.246 C 
HETATM    6  O6  DPC A 466      -2.547  57.898  -8.264  1.00 10.40    -0.328 OA
ENDROOT
BRANCH   5   7
HETATM    7  C7  DPC A 466      -3.148  57.182 -10.370  1.00 10.79     0.251 C 
HETATM    8  O7  DPC A 466      -2.682  57.930 -10.776  1.00  9.13    -0.270 OA
HETATM    9  N8  DPC A 466      -4.110  56.454 -10.920  1.00  9.99    -0.350 N 
BRANCH   9  10
HETATM   10  C81 DPC A 466      -4.599  56.906 -12.241  1.00  8.72     0.130 C 
BRANCH  10  11
HETATM   11  C82 DPC A 466      -5.809  57.839 -12.131  1.00  6.37     0.058 C 
BRANCH  11  12
HETATM   12  CG  DPC A 466      -5.535  58.871 -11.056  1.00 13.21    -0.057 A 
HETATM   13  CD1 DPC A 466      -6.116  58.741  -9.775  1.00 12.56     0.007 A 
HETATM   14  CE1 DPC A 466      -5.922  59.731  -8.795  1.00 14.24     0.001 A 
HETATM   15  CZ  DPC A 466      -5.133  60.858  -9.090  1.00 14.76     0.000 A 
HETATM   16  CE2 DPC A 466      -4.532  60.970 -10.351  1.00 12.57     0.001 A 
HETATM   17  CD2 DPC A 466      -4.727  59.986 -11.325  1.00 12.80     0.007 A 
ENDBRANCH  11  12
ENDBRANCH  10  11
ENDBRANCH   9  10
BRANCH   9  18
HETATM   18  C9  DPC A 466      -4.742  55.307 -10.271  1.00 12.20     0.125 C 
BRANCH  18  19
HETATM   19  C91 DPC A 466      -4.163  53.966 -10.754  1.00 11.35     0.015 C 
HETATM   20  C92 DPC A 466      -4.553  52.742  -9.905  1.00 10.72     0.006 C 
ENDBRANCH  18  19
ENDBRANCH   9  18
ENDBRANCH   5   7
BRANCH   4  21
HETATM   21  N5  DPC A 466      -1.105  55.026 -10.037  1.00  8.66    -0.351 N 
HETATM   22  C10 DPC A 466      -0.979  54.906 -11.367  1.00  8.96     0.214 C 
HETATM   23  O10 DPC A 466      -0.881  55.886 -12.086  1.00  8.83    -0.274 OA
HETATM   24  C11 DPC A 466      -0.920  53.473 -11.926  1.00  5.01     0.117 C 
ATOM     25  H5  DPC A 466      -1.223  54.171  -9.493  1.00  0.00     0.163 HD
ENDBRANCH   4  21
BRANCH   3  26
HETATM   26  NE  DPC A 466       1.038  56.029  -8.162  1.00  7.66    -0.070 N 
ATOM     27  HE3 DPC A 466       1.407  56.871  -8.604  1.00  0.00     0.275 HD
ATOM     28  HE2 DPC A 466       1.552  56.090  -7.283  1.00  0.00     0.275 HD
ATOM     29  HE1 DPC A 466       1.265  55.184  -8.687  1.00  0.00     0.275 HD
ENDBRANCH   3  26
BRANCH   1  30
HETATM   30  C1  DPC A 466      -2.085  59.068  -6.238  1.00 12.45     0.233 C 
HETATM   31  O1A DPC A 466      -3.242  59.469  -6.188  1.00 13.44    -0.642 OA
HETATM   32  O1B DPC A 466      -1.268  59.467  -5.419  1.00 11.63    -0.642 OA
ENDBRANCH   1  30
TORSDOF 9
