REMARK  9 active torsions:
REMARK  status: ('A' for Active; 'I' for Inactive)
REMARK    1  A    between atoms: C1_1  and  C2_4 
REMARK    2  A    between atoms: C4_6  and  NE_29 
REMARK    3  A    between atoms: C5_7  and  N5_8 
REMARK       I    between atoms: N5_8  and  C10_10 
REMARK    4  A    between atoms: C6_13  and  C7_15 
REMARK       I    between atoms: C7_15  and  N8_17 
REMARK    5  A    between atoms: N8_17  and  C81_18 
REMARK    6  A    between atoms: N8_17  and  C9_26 
REMARK    7  A    between atoms: C81_18  and  C82_19 
REMARK    8  A    between atoms: C82_19  and  CG_20 
REMARK    9  A    between atoms: C9_26  and  C91_27 
ROOT
HETATM    1  C2  DPC A 466      -1.769  57.790  -6.992  1.00  9.12     0.144 C 
HETATM    2  C3  DPC A 466      -0.754  56.919  -6.970  1.00  7.83     0.051 C 
HETATM    3  C4  DPC A 466      -0.607  55.883  -8.051  1.00  8.13     0.234 C 
HETATM    4  C5  DPC A 466      -1.451  56.214  -9.279  1.00  4.13     0.157 C 
HETATM    5  C6  DPC A 466      -2.825  56.699  -8.824  1.00  9.37     0.246 C 
HETATM    6  O6  DPC A 466      -2.704  57.783  -7.943  1.00 10.40    -0.328 OA
ENDROOT
BRANCH   5   7
HETATM    7  C7  DPC A 466      -3.583  57.258 -10.006  1.00 10.79     0.251 C 
HETATM    8  O7  DPC A 466      -3.016  57.400 -10.780  1.00  9.13    -0.270 OA
HETATM    9  N8  DPC A 466      -4.906  57.342  -9.968  1.00  9.99    -0.350 N 
BRANCH   9  10
HETATM   10  C81 DPC A 466      -5.569  57.814 -11.204  1.00  8.72     0.130 C 
BRANCH  10  11
HETATM   11  C82 DPC A 466      -6.010  59.278 -11.110  1.00  6.37     0.058 C 
BRANCH  11  12
HETATM   12  CG  DPC A 466      -5.004  60.039 -10.270  1.00 13.21    -0.057 A 
HETATM   13  CD1 DPC A 466      -5.317  60.412  -8.943  1.00 12.56     0.007 A 
HETATM   14  CE1 DPC A 466      -4.416  61.177  -8.181  1.00 14.24     0.001 A 
HETATM   15  CZ  DPC A 466      -3.187  61.569  -8.743  1.00 14.76     0.000 A 
HETATM   16  CE2 DPC A 466      -2.865  61.173 -10.048  1.00 12.57     0.001 A 
HETATM   17  CD2 DPC A 466      -3.763  60.412 -10.805  1.00 12.80     0.007 A 
ENDBRANCH  11  12
ENDBRANCH  10  11
ENDBRANCH   9  10
BRANCH   9  18
HETATM   18  C9  DPC A 466      -5.710  57.070  -8.778  1.00 12.20     0.125 C 
BRANCH  18  19
HETATM   19  C91 DPC A 466      -6.318  55.657  -8.790  1.00 11.35     0.015 C 
HETATM   20  C92 DPC A 466      -5.747  54.708  -9.860  1.00 10.72     0.006 C 
ENDBRANCH  18  19
ENDBRANCH   9  18
ENDBRANCH   5   7
BRANCH   4  21
HETATM   21  N5  DPC A 466      -1.614  55.011 -10.088  1.00  8.66    -0.351 N 
HETATM   22  C10 DPC A 466      -0.764  54.614 -11.046  1.00  8.96     0.214 C 
HETATM   23  O10 DPC A 466       0.213  55.281 -11.344  1.00  8.83    -0.274 OA
HETATM   24  C11 DPC A 466      -1.061  53.258 -11.712  1.00  5.01     0.117 C 
ATOM     25  H5  DPC A 466      -2.434  54.430  -9.912  1.00  0.00     0.163 HD
ENDBRANCH   4  21
BRANCH   3  26
HETATM   26  NE  DPC A 466       0.780  55.785  -8.421  1.00  7.66    -0.070 N 
ATOM     27  HE3 DPC A 466       1.229  56.698  -8.486  1.00  0.00     0.275 HD
ATOM     28  HE2 DPC A 466       1.354  55.395  -7.674  1.00  0.00     0.275 HD
ATOM     29  HE1 DPC A 466       0.856  55.252  -9.288  1.00  0.00     0.275 HD
ENDBRANCH   3  26
BRANCH   1  30
HETATM   30  C1  DPC A 466      -1.951  58.771  -5.908  1.00 12.45     0.233 C 
HETATM   31  O1A DPC A 466      -1.001  59.031  -5.179  1.00 13.44    -0.642 OA
HETATM   32  O1B DPC A 466      -2.995  59.399  -5.791  1.00 11.63    -0.642 OA
ENDBRANCH   1  30
TORSDOF 9
