4PP.pdb
  rDOCK(R)          3D
libRbt.so/2013.1/901 2013/11/27
 34 36  0  0  0  0  0  0  0  0999 V2000
    6.0305    8.2348   18.9992 C   0  0  0  0  0  0
    7.2552    8.2080   18.8141 O   0  0  0  0  0  0
    5.2604    9.1821   18.3805 O   0  0  0  0  0  0
    0.6083    6.7564   26.2406 N   0  0  0  0  0  0
    0.5400    5.3893   25.9078 C   0  0  0  0  0  0
    1.0268    4.9504   24.6591 C   0  0  0  0  0  0
    1.5776    5.8738   23.7468 C   0  0  0  0  0  0
    1.6461    7.2537   24.0885 C   0  0  0  0  0  0
    1.1620    7.6860   25.3314 C   0  0  0  0  0  0
    2.0760    5.3641   22.4419 N   0  0  0  0  0  0
    5.3896    7.1816   19.9253 C   0  0  0  0  0  0
    4.5566    7.8498   21.0221 C   0  0  0  0  0  0
    4.0188    6.7430   21.9238 C   0  0  0  0  0  0
    2.5701    6.4415   21.5570 C   0  0  0  0  0  0
    8.4906    1.5291   16.5889 N   0  0  0  0  0  0
    8.1017   -0.7059   16.8679 N   0  0  0  0  0  0
    7.6795    0.5416   16.9200 C   0  0  0  0  0  0
    2.9015    4.4768   17.5309 C   0  0  0  0  0  0
    2.5306    5.8393   17.6989 C   0  0  0  0  0  0
    3.3453    6.7038   18.4751 C   0  0  0  0  0  0
    4.5347    6.2145   19.0903 C   0  0  0  0  0  0
    4.9130    4.8419   18.9262 C   0  0  0  0  0  0
    4.0964    3.9687   18.1444 C   0  0  0  0  0  0
    3.9712    0.0655   17.9948 C   0  0  0  0  0  0
    3.5654    1.4198   18.1778 C   0  0  0  0  0  0
    4.4998    2.4806   17.9523 C   0  0  0  0  0  0
    5.8249    2.1714   17.5479 C   0  0  0  0  0  0
    6.2318    0.8272   17.3624 C   0  0  0  0  0  0
    5.3065   -0.2307   17.5865 C   0  0  0  0  0  0
    4.3396    9.2209   18.5496 H   0  0  0  0  0  0
    2.0770    4.4115   22.1934 H   0  0  0  0  0  0
    9.4138    1.3346   16.3076 H   0  0  0  0  0  0
    9.0246   -0.9019   16.5868 H   0  0  0  0  0  0
    7.4941   -1.4418   17.1102 H   0  0  0  0  0  0
  1  2  2  0  0  0
  1  3  1  0  0  0
  1 11  1  0  0  0
  3 30  1  0  0  0
  4  5  2  0  0  0
  4  9  1  0  0  0
  5  6  1  0  0  0
  6  7  2  0  0  0
  7  8  1  0  0  0
  7 10  1  0  0  0
  8  9  2  0  0  0
 10 14  1  0  0  0
 10 31  1  0  0  0
 11 12  1  0  0  0
 11 21  1  0  0  0
 12 13  1  0  0  0
 13 14  1  0  0  0
 15 17  2  0  0  0
 15 32  1  0  0  0
 16 17  1  0  0  0
 16 33  1  0  0  0
 16 34  1  0  0  0
 17 28  1  0  0  0
 18 19  2  0  0  0
 18 23  1  0  0  0
 19 20  1  0  0  0
 20 21  2  0  0  0
 21 22  1  0  0  0
 22 23  2  0  0  0
 23 26  1  0  0  0
 24 25  2  0  0  0
 24 29  1  0  0  0
 25 26  1  0  0  0
 26 27  2  0  0  0
 27 28  1  0  0  0
 28 29  2  0  0  0
M  END
>  <CHROM.0>
83.49349784,-60.67265851,4.72360599,150.92611809,61.05404354,66.18243654
-87.61219995,-75.03449841,-60.85754895,-96.07116411

>  <CHROM.1>
-177.54136588,126.06123003,177.37887667,84.52666074,-177.36581801,-68.07656921
-100.12265325,179.81704901,-6.72722213,-49.95053454,4.17992469,4.78064492
19.98851624,-2.43164329,-0.90724004,-3.00311387

>  <FORMUL>
      4PP    C23 H24 N4 O2

>  <HET>
 4PP  C 500      29

>  <HETNAM>
     4PP (2S)-(3'-AMIDINO-3-BIPHENYL)-5-(4-PYRIDYLAMINO)PENTANOI
   2 4PP C ACID

>  <Name>
4PP.pdb

>  <RI>
0

>  <Rbt.Current_Directory>
/home/malgorzata/Desktop/rDOCK_IFD/test7/IFD

>  <Rbt.Executable>
rbdock ($Id: //depot/dev/client3/rdock/2013.1/src/exe/rbdock.cxx#4 $)

>  <Rbt.Library>
libRbt.so (2013.1, Build901 2013/11/27)

>  <Rbt.Parameter_File>
/home/malgorzata/Desktop/rDock_2013.1_src/data/scripts/hard_docking.prm

>  <Rbt.Receptor>
cavity.prm

>  <SCORE>
-9.90334

>  <SCORE.INTER>
-0.180102

>  <SCORE.INTER.CONST>
1

>  <SCORE.INTER.POLAR>
0

>  <SCORE.INTER.REPUL>
0.00315751

>  <SCORE.INTER.ROT>
9

>  <SCORE.INTER.VDW>
-14.5959

>  <SCORE.INTER.norm>
-0.00621041

>  <SCORE.INTRA>
-4.99219

>  <SCORE.INTRA.DIHEDRAL>
-8.50169

>  <SCORE.INTRA.DIHEDRAL.0>
20.1331

>  <SCORE.INTRA.POLAR>
0

>  <SCORE.INTRA.POLAR.0>
0

>  <SCORE.INTRA.REPUL>
0

>  <SCORE.INTRA.REPUL.0>
0

>  <SCORE.INTRA.VDW>
-0.741348

>  <SCORE.INTRA.VDW.0>
0.0644272

>  <SCORE.INTRA.norm>
-0.172145

>  <SCORE.RESTR>
0

>  <SCORE.RESTR.CAVITY>
0

>  <SCORE.RESTR.norm>
0

>  <SCORE.SYSTEM>
-4.73104

>  <SCORE.SYSTEM.CONST>
0

>  <SCORE.SYSTEM.DIHEDRAL>
4.99172

>  <SCORE.SYSTEM.POLAR>
-1.0198

>  <SCORE.SYSTEM.VDW>
-3.75957

>  <SCORE.SYSTEM.norm>
-0.163139

>  <SCORE.heavy>
29

>  <SCORE.norm>
-0.341494

$$$$
4PP.pdb
  rDOCK(R)          3D
libRbt.so/2013.1/901 2013/11/27
 34 36  0  0  0  0  0  0  0  0999 V2000
    3.4511    6.0396   21.1834 C   0  0  0  0  0  0
    3.1100    5.5334   22.2614 O   0  0  0  0  0  0
    2.7159    7.0560   20.6360 O   0  0  0  0  0  0
    3.7135   -1.5383   16.9625 N   0  0  0  0  0  0
    4.9566   -0.9586   16.6411 C   0  0  0  0  0  0
    5.3606    0.2281   17.2872 C   0  0  0  0  0  0
    4.5253    0.8334   18.2486 C   0  0  0  0  0  0
    3.2711    0.2428   18.5712 C   0  0  0  0  0  0
    2.8735   -0.9377   17.9273 C   0  0  0  0  0  0
    4.9931    2.0847   18.9015 N   0  0  0  0  0  0
    4.7178    5.5157   20.4772 C   0  0  0  0  0  0
    4.3806    4.9470   19.0966 C   0  0  0  0  0  0
    3.3495    3.8410   19.2988 C   0  0  0  0  0  0
    4.0272    2.6103   19.8907 C   0  0  0  0  0  0
    8.0431    6.3038   26.2985 N   0  0  0  0  0  0
    9.8823    7.3597   27.1510 N   0  0  0  0  0  0
    9.0234    7.1783   26.1679 C   0  0  0  0  0  0
    7.6554    8.7524   20.1116 C   0  0  0  0  0  0
    6.8178    8.4110   19.0144 C   0  0  0  0  0  0
    5.8708    7.3625   19.1466 C   0  0  0  0  0  0
    5.7541    6.6465   20.3740 C   0  0  0  0  0  0
    6.5967    6.9846   21.4829 C   0  0  0  0  0  0
    7.5502    8.0403   21.3544 C   0  0  0  0  0  0
   10.2320    9.8147   23.5753 C   0  0  0  0  0  0
    9.4075    9.4943   22.4574 C   0  0  0  0  0  0
    8.4639    8.4219   22.5518 C   0  0  0  0  0  0
    8.3595    7.6865   23.7614 C   0  0  0  0  0  0
    9.1751    8.0030   24.8756 C   0  0  0  0  0  0
   10.1153    9.0677   24.7859 C   0  0  0  0  0  0
    2.9812    7.4416   19.8242 H   0  0  0  0  0  0
    5.8537    2.5170   18.6973 H   0  0  0  0  0  0
    7.9560    5.7823   27.1289 H   0  0  0  0  0  0
    9.7964    6.8390   27.9821 H   0  0  0  0  0  0
   10.6098    8.0159   27.0543 H   0  0  0  0  0  0
  1  2  2  0  0  0
  1  3  1  0  0  0
  1 11  1  0  0  0
  3 30  1  0  0  0
  4  5  2  0  0  0
  4  9  1  0  0  0
  5  6  1  0  0  0
  6  7  2  0  0  0
  7  8  1  0  0  0
  7 10  1  0  0  0
  8  9  2  0  0  0
 10 14  1  0  0  0
 10 31  1  0  0  0
 11 12  1  0  0  0
 11 21  1  0  0  0
 12 13  1  0  0  0
 13 14  1  0  0  0
 15 17  2  0  0  0
 15 32  1  0  0  0
 16 17  1  0  0  0
 16 33  1  0  0  0
 16 34  1  0  0  0
 17 28  1  0  0  0
 18 19  2  0  0  0
 18 23  1  0  0  0
 19 20  1  0  0  0
 20 21  2  0  0  0
 21 22  1  0  0  0
 22 23  2  0  0  0
 23 26  1  0  0  0
 24 25  2  0  0  0
 24 29  1  0  0  0
 25 26  1  0  0  0
 26 27  2  0  0  0
 27 28  1  0  0  0
 28 29  2  0  0  0
M  END
>  <CHROM.0>
-89.48603170,-60.67265851,5.13068355,-168.44370630,-61.89498606,-62.67447796
-85.96818327,-79.00441580,176.92843955,-93.60877144

>  <CHROM.1>
179.46645175,119.21409094,-179.75855488,-106.33877971,-57.66291957,-99.02180428
-73.93747244,-64.88067474,-8.32312317,1.04636483,6.09358996,5.31989927,21.07874939
2.48600928,0.95588416,3.01124242

>  <FORMUL>
      4PP    C23 H24 N4 O2

>  <HET>
 4PP  C 500      29

>  <HETNAM>
     4PP (2S)-(3'-AMIDINO-3-BIPHENYL)-5-(4-PYRIDYLAMINO)PENTANOI
   2 4PP C ACID

>  <Name>
4PP.pdb

>  <RI>
0

>  <Rbt.Current_Directory>
/home/malgorzata/Desktop/rDOCK_IFD/test7/IFD

>  <Rbt.Executable>
rbdock ($Id: //depot/dev/client3/rdock/2013.1/src/exe/rbdock.cxx#4 $)

>  <Rbt.Library>
libRbt.so (2013.1, Build901 2013/11/27)

>  <Rbt.Parameter_File>
/home/malgorzata/Desktop/rDock_2013.1_src/data/scripts/hard_docking.prm

>  <Rbt.Receptor>
cavity.prm

>  <SCORE>
-18.8194

>  <SCORE.INTER>
-9.55744

>  <SCORE.INTER.CONST>
1

>  <SCORE.INTER.POLAR>
0

>  <SCORE.INTER.REPUL>
0

>  <SCORE.INTER.ROT>
9

>  <SCORE.INTER.VDW>
-23.9574

>  <SCORE.INTER.norm>
-0.329567

>  <SCORE.INTRA>
-6.21573

>  <SCORE.INTRA.DIHEDRAL>
-15.0638

>  <SCORE.INTRA.DIHEDRAL.0>
20.1331

>  <SCORE.INTRA.POLAR>
0

>  <SCORE.INTRA.POLAR.0>
0

>  <SCORE.INTRA.REPUL>
0

>  <SCORE.INTRA.REPUL.0>
0

>  <SCORE.INTRA.VDW>
1.31616

>  <SCORE.INTRA.VDW.0>
0.0644272

>  <SCORE.INTRA.norm>
-0.214336

>  <SCORE.RESTR>
0

>  <SCORE.RESTR.CAVITY>
0

>  <SCORE.RESTR.norm>
0

>  <SCORE.SYSTEM>
-3.04619

>  <SCORE.SYSTEM.CONST>
0

>  <SCORE.SYSTEM.DIHEDRAL>
4.56851

>  <SCORE.SYSTEM.POLAR>
-0.995019

>  <SCORE.SYSTEM.VDW>
-1.94739

>  <SCORE.SYSTEM.norm>
-0.105041

>  <SCORE.heavy>
29

>  <SCORE.norm>
-0.648944

$$$$
4PP.pdb
  rDOCK(R)          3D
libRbt.so/2013.1/901 2013/11/27
 34 36  0  0  0  0  0  0  0  0999 V2000
    5.7822    8.5327   24.7051 C   0  0  0  0  0  0
    5.9544    9.5779   24.0628 O   0  0  0  0  0  0
    5.7993    7.3214   24.0681 O   0  0  0  0  0  0
    4.1310    7.0222   20.5667 N   0  0  0  0  0  0
    4.5216    8.3757   20.5591 C   0  0  0  0  0  0
    4.1643    9.2107   21.6379 C   0  0  0  0  0  0
    3.4188    8.6957   22.7184 C   0  0  0  0  0  0
    3.0283    7.3270   22.7223 C   0  0  0  0  0  0
    3.3862    6.4998   21.6482 C   0  0  0  0  0  0
    3.0641    9.6149   23.8321 N   0  0  0  0  0  0
    5.5604    8.6176   26.2287 C   0  0  0  0  0  0
    4.1196    9.0215   26.5515 C   0  0  0  0  0  0
    3.1993    8.1100   25.7455 C   0  0  0  0  0  0
    2.2647    8.9548   24.8871 C   0  0  0  0  0  0
    9.5614    2.2029   31.2766 N   0  0  0  0  0  0
   11.8086    2.6134   31.3551 N   0  0  0  0  0  0
   10.6107    2.9033   30.8879 C   0  0  0  0  0  0
    6.5092    4.7505   28.0686 C   0  0  0  0  0  0
    5.1981    5.0183   27.5877 C   0  0  0  0  0  0
    4.9050    6.2732   26.9934 C   0  0  0  0  0  0
    5.9176    7.2699   26.8764 C   0  0  0  0  0  0
    7.2405    7.0068   27.3608 C   0  0  0  0  0  0
    7.5401    5.7444   27.9583 C   0  0  0  0  0  0
   11.3993    5.9118   28.5511 C   0  0  0  0  0  0
   10.0987    6.2179   28.0541 C   0  0  0  0  0  0
    8.9724    5.4438   28.4800 C   0  0  0  0  0  0
    9.1635    4.3758   29.3955 C   0  0  0  0  0  0
   10.4538    4.0697   29.8939 C   0  0  0  0  0  0
   11.5765    4.8360   29.4723 C   0  0  0  0  0  0
    5.7672    6.5290   24.5672 H   0  0  0  0  0  0
    3.3326   10.5615   23.8638 H   0  0  0  0  0  0
    9.6737    1.4596   31.9123 H   0  0  0  0  0  0
   11.9224    1.8704   31.9908 H   0  0  0  0  0  0
   12.5895    3.1398   31.0683 H   0  0  0  0  0  0
  1  2  2  0  0  0
  1  3  1  0  0  0
  1 11  1  0  0  0
  3 30  1  0  0  0
  4  5  2  0  0  0
  4  9  1  0  0  0
  5  6  1  0  0  0
  6  7  2  0  0  0
  7  8  1  0  0  0
  7 10  1  0  0  0
  8  9  2  0  0  0
 10 14  1  0  0  0
 10 31  1  0  0  0
 11 12  1  0  0  0
 11 21  1  0  0  0
 12 13  1  0  0  0
 13 14  1  0  0  0
 15 17  2  0  0  0
 15 32  1  0  0  0
 16 17  1  0  0  0
 16 33  1  0  0  0
 16 34  1  0  0  0
 17 28  1  0  0  0
 18 19  2  0  0  0
 18 23  1  0  0  0
 19 20  1  0  0  0
 20 21  2  0  0  0
 21 22  1  0  0  0
 22 23  2  0  0  0
 23 26  1  0  0  0
 24 25  2  0  0  0
 24 29  1  0  0  0
 25 26  1  0  0  0
 26 27  2  0  0  0
 27 28  1  0  0  0
 28 29  2  0  0  0
M  END
>  <CHROM.0>
100.60169929,-60.67265851,-4.20461001,-168.92563418,63.31887883,64.28709500
-175.98426647,-90.29165925,-63.74732238,-96.85998881

>  <CHROM.1>
173.00069050,78.93747913,179.04802830,77.44380268,49.79212299,-88.84785107
-124.11527842,68.82536763,-0.36322422,161.54837273,6.50900706,6.62081308
26.25895276,-2.26645125,-0.29009467,1.89886586

>  <FORMUL>
      4PP    C23 H24 N4 O2

>  <HET>
 4PP  C 500      29

>  <HETNAM>
     4PP (2S)-(3'-AMIDINO-3-BIPHENYL)-5-(4-PYRIDYLAMINO)PENTANOI
   2 4PP C ACID

>  <Name>
4PP.pdb

>  <RI>
0

>  <Rbt.Current_Directory>
/home/malgorzata/Desktop/rDOCK_IFD/test7/IFD

>  <Rbt.Executable>
rbdock ($Id: //depot/dev/client3/rdock/2013.1/src/exe/rbdock.cxx#4 $)

>  <Rbt.Library>
libRbt.so (2013.1, Build901 2013/11/27)

>  <Rbt.Parameter_File>
/home/malgorzata/Desktop/rDock_2013.1_src/data/scripts/hard_docking.prm

>  <Rbt.Receptor>
cavity.prm

>  <SCORE>
-17.829

>  <SCORE.INTER>
-13.1304

>  <SCORE.INTER.CONST>
1

>  <SCORE.INTER.POLAR>
-1.27223

>  <SCORE.INTER.REPUL>
0.0165584

>  <SCORE.INTER.ROT>
9

>  <SCORE.INTER.VDW>
-23.2876

>  <SCORE.INTER.norm>
-0.452771

>  <SCORE.INTRA>
-2.07445

>  <SCORE.INTRA.DIHEDRAL>
-7.44889

>  <SCORE.INTRA.DIHEDRAL.0>
20.1331

>  <SCORE.INTRA.POLAR>
0

>  <SCORE.INTRA.POLAR.0>
0

>  <SCORE.INTRA.REPUL>
0

>  <SCORE.INTRA.REPUL.0>
0

>  <SCORE.INTRA.VDW>
1.64999

>  <SCORE.INTRA.VDW.0>
0.0644272

>  <SCORE.INTRA.norm>
-0.0715329

>  <SCORE.RESTR>
0

>  <SCORE.RESTR.CAVITY>
0

>  <SCORE.RESTR.norm>
0

>  <SCORE.SYSTEM>
-2.62423

>  <SCORE.SYSTEM.CONST>
0

>  <SCORE.SYSTEM.DIHEDRAL>
1.89618

>  <SCORE.SYSTEM.VDW>
-3.57232

>  <SCORE.SYSTEM.norm>
-0.0904907

>  <SCORE.heavy>
29

>  <SCORE.norm>
-0.614794

$$$$
4PP.pdb
  rDOCK(R)          3D
libRbt.so/2013.1/901 2013/11/27
 34 36  0  0  0  0  0  0  0  0999 V2000
    2.7302    4.6172   20.1606 C   0  0  0  0  0  0
    2.2286    5.5586   19.5306 O   0  0  0  0  0  0
    1.9298    3.7314   20.8297 O   0  0  0  0  0  0
    8.5336   -1.5035   16.3122 N   0  0  0  0  0  0
    7.2692   -1.5158   15.6910 C   0  0  0  0  0  0
    6.1957   -0.8168   16.2807 C   0  0  0  0  0  0
    6.3846   -0.1102   17.4863 C   0  0  0  0  0  0
    7.6644   -0.0993   18.1090 C   0  0  0  0  0  0
    8.7295   -0.7947   17.5190 C   0  0  0  0  0  0
    5.2226    0.6100   18.0711 N   0  0  0  0  0  0
    4.2635    4.4543   20.1694 C   0  0  0  0  0  0
    4.7027    3.3443   19.2112 C   0  0  0  0  0  0
    4.3817    2.0114   19.8803 C   0  0  0  0  0  0
    5.4301    0.9759   19.4892 C   0  0  0  0  0  0
    8.4518    6.5737   25.0641 N   0  0  0  0  0  0
    9.8095    8.3350   25.5923 N   0  0  0  0  0  0
    8.9306    7.7724   24.7872 C   0  0  0  0  0  0
    6.1236    8.2713   19.0688 C   0  0  0  0  0  0
    5.3181    7.5651   18.1337 C   0  0  0  0  0  0
    4.7212    6.3319   18.5032 C   0  0  0  0  0  0
    4.9252    5.7940   19.8077 C   0  0  0  0  0  0
    5.7375    6.5000   20.7541 C   0  0  0  0  0  0
    6.3389    7.7425   20.3866 C   0  0  0  0  0  0
    8.3851   10.5719   22.1417 C   0  0  0  0  0  0
    7.5772    9.8890   21.1862 C   0  0  0  0  0  0
    7.2151    8.5216   21.4061 C   0  0  0  0  0  0
    7.6664    7.8581   22.5771 C   0  0  0  0  0  0
    8.4674    8.5336   23.5305 C   0  0  0  0  0  0
    8.8307    9.8928   23.3154 C   0  0  0  0  0  0
    0.9989    3.8376   20.8153 H   0  0  0  0  0  0
    4.4029    0.8207   17.5683 H   0  0  0  0  0  0
    8.7552    6.0967   25.8701 H   0  0  0  0  0  0
   10.1137    7.8592   26.3986 H   0  0  0  0  0  0
   10.1619    9.2312   25.3872 H   0  0  0  0  0  0
  1  2  2  0  0  0
  1  3  1  0  0  0
  1 11  1  0  0  0
  3 30  1  0  0  0
  4  5  2  0  0  0
  4  9  1  0  0  0
  5  6  1  0  0  0
  6  7  2  0  0  0
  7  8  1  0  0  0
  7 10  1  0  0  0
  8  9  2  0  0  0
 10 14  1  0  0  0
 10 31  1  0  0  0
 11 12  1  0  0  0
 11 21  1  0  0  0
 12 13  1  0  0  0
 13 14  1  0  0  0
 15 17  2  0  0  0
 15 32  1  0  0  0
 16 17  1  0  0  0
 16 33  1  0  0  0
 16 34  1  0  0  0
 17 28  1  0  0  0
 18 19  2  0  0  0
 18 23  1  0  0  0
 19 20  1  0  0  0
 20 21  2  0  0  0
 21 22  1  0  0  0
 22 23  2  0  0  0
 23 26  1  0  0  0
 24 25  2  0  0  0
 24 29  1  0  0  0
 25 26  1  0  0  0
 26 27  2  0  0  0
 27 28  1  0  0  0
 28 29  2  0  0  0
M  END
>  <CHROM.0>
99.15694953,-60.67265851,0.36811309,-154.68179220,-59.13677340,-57.19148121
62.48738061,163.97134956,-60.95125070,-139.39351582

>  <CHROM.1>
-0.24262986,-102.37012915,163.62489175,164.95799624,-75.60780707,-65.00529755
-146.55736124,-71.62107569,-8.81154754,14.05552841,6.29556230,4.79686906
20.20128995,1.74267318,0.36411415,-2.64142883

>  <FORMUL>
      4PP    C23 H24 N4 O2

>  <HET>
 4PP  C 500      29

>  <HETNAM>
     4PP (2S)-(3'-AMIDINO-3-BIPHENYL)-5-(4-PYRIDYLAMINO)PENTANOI
   2 4PP C ACID

>  <Name>
4PP.pdb

>  <RI>
0

>  <Rbt.Current_Directory>
/home/malgorzata/Desktop/rDOCK_IFD/test7/IFD

>  <Rbt.Executable>
rbdock ($Id: //depot/dev/client3/rdock/2013.1/src/exe/rbdock.cxx#4 $)

>  <Rbt.Library>
libRbt.so (2013.1, Build901 2013/11/27)

>  <Rbt.Parameter_File>
/home/malgorzata/Desktop/rDock_2013.1_src/data/scripts/hard_docking.prm

>  <Rbt.Receptor>
cavity.prm

>  <SCORE>
-17.785

>  <SCORE.INTER>
-11.2234

>  <SCORE.INTER.CONST>
1

>  <SCORE.INTER.POLAR>
0

>  <SCORE.INTER.REPUL>
0

>  <SCORE.INTER.ROT>
9

>  <SCORE.INTER.VDW>
-25.6234

>  <SCORE.INTER.norm>
-0.387015

>  <SCORE.INTRA>
-4.50658

>  <SCORE.INTRA.DIHEDRAL>
-9.38861

>  <SCORE.INTRA.DIHEDRAL.0>
20.1331

>  <SCORE.INTRA.POLAR>
0

>  <SCORE.INTRA.POLAR.0>
0

>  <SCORE.INTRA.REPUL>
0

>  <SCORE.INTRA.REPUL.0>
0

>  <SCORE.INTRA.VDW>
0.187728

>  <SCORE.INTRA.VDW.0>
0.0644272

>  <SCORE.INTRA.norm>
-0.155399

>  <SCORE.RESTR>
0

>  <SCORE.RESTR.CAVITY>
0

>  <SCORE.RESTR.norm>
0

>  <SCORE.SYSTEM>
-2.05497

>  <SCORE.SYSTEM.CONST>
0

>  <SCORE.SYSTEM.DIHEDRAL>
1.65629

>  <SCORE.SYSTEM.POLAR>
-0.0140628

>  <SCORE.SYSTEM.REPUL>
0.0688849

>  <SCORE.SYSTEM.VDW>
-3.17973

>  <SCORE.SYSTEM.norm>
-0.0708612

>  <SCORE.heavy>
29

>  <SCORE.norm>
-0.613275

$$$$
4PP.pdb
  rDOCK(R)          3D
libRbt.so/2013.1/901 2013/11/27
 34 36  0  0  0  0  0  0  0  0999 V2000
    9.6334   10.6390   23.0413 C   0  0  0  0  0  0
    9.5380   11.8685   23.1597 O   0  0  0  0  0  0
   10.8214   10.0115   23.3028 O   0  0  0  0  0  0
    2.0562    7.6586   22.6621 N   0  0  0  0  0  0
    2.2940    6.2848   22.4605 C   0  0  0  0  0  0
    3.5847    5.8462   22.0990 C   0  0  0  0  0  0
    4.6321    6.7765   21.9380 C   0  0  0  0  0  0
    4.3871    8.1632   22.1446 C   0  0  0  0  0  0
    3.1027    8.5952   22.5050 C   0  0  0  0  0  0
    5.9752    6.2668   21.5541 N   0  0  0  0  0  0
    8.3948    9.8298   22.6070 C   0  0  0  0  0  0
    8.7517    8.8301   21.5042 C   0  0  0  0  0  0
    7.4589    8.1417   21.0773 C   0  0  0  0  0  0
    7.0774    7.0839   22.1067 C   0  0  0  0  0  0
    2.0908    4.9613   26.1458 N   0  0  0  0  0  0
    0.1383    6.1398   26.2992 N   0  0  0  0  0  0
    1.4493    6.1150   26.1663 C   0  0  0  0  0  0
    6.7413    7.7691   26.1083 C   0  0  0  0  0  0
    8.1306    7.6920   25.8152 C   0  0  0  0  0  0
    8.6526    8.3645   24.6800 C   0  0  0  0  0  0
    7.7918    9.1173   23.8285 C   0  0  0  0  0  0
    6.3903    9.1973   24.1174 C   0  0  0  0  0  0
    5.8611    8.5230   25.2601 C   0  0  0  0  0  0
    2.2964    9.9103   26.0608 C   0  0  0  0  0  0
    3.6885    9.8697   25.7566 C   0  0  0  0  0  0
    4.3449    8.6086   25.5887 C   0  0  0  0  0  0
    3.6000    7.4083   25.7280 C   0  0  0  0  0  0
    2.2159    7.4440   26.0278 C   0  0  0  0  0  0
    1.5595    8.6955   26.1965 C   0  0  0  0  0  0
   10.8879    9.0807   23.2188 H   0  0  0  0  0  0
    6.1157    5.4707   20.9923 H   0  0  0  0  0  0
    1.5903    4.1182   26.2352 H   0  0  0  0  0  0
   -0.3635    5.2975   26.3885 H   0  0  0  0  0  0
   -0.3394    7.0006   26.3090 H   0  0  0  0  0  0
  1  2  2  0  0  0
  1  3  1  0  0  0
  1 11  1  0  0  0
  3 30  1  0  0  0
  4  5  2  0  0  0
  4  9  1  0  0  0
  5  6  1  0  0  0
  6  7  2  0  0  0
  7  8  1  0  0  0
  7 10  1  0  0  0
  8  9  2  0  0  0
 10 14  1  0  0  0
 10 31  1  0  0  0
 11 12  1  0  0  0
 11 21  1  0  0  0
 12 13  1  0  0  0
 13 14  1  0  0  0
 15 17  2  0  0  0
 15 32  1  0  0  0
 16 17  1  0  0  0
 16 33  1  0  0  0
 16 34  1  0  0  0
 17 28  1  0  0  0
 18 19  2  0  0  0
 18 23  1  0  0  0
 19 20  1  0  0  0
 20 21  2  0  0  0
 21 22  1  0  0  0
 22 23  2  0  0  0
 23 26  1  0  0  0
 24 25  2  0  0  0
 24 29  1  0  0  0
 25 26  1  0  0  0
 26 27  2  0  0  0
 27 28  1  0  0  0
 28 29  2  0  0  0
M  END
>  <CHROM.0>
-92.62139301,-60.67265851,-12.63030086,-166.79819653,-179.91513314,-56.50027948
62.42375340,164.05105236,-64.67741693,-128.56083557

>  <CHROM.1>
179.50614158,133.42533869,-148.43842679,-92.59531202,-176.47306296,-49.36740182
-77.65918987,-169.64246138,7.00888868,123.98752800,5.31204536,8.12865759
23.96711246,-0.11732961,0.43400724,1.12998362

>  <FORMUL>
      4PP    C23 H24 N4 O2

>  <HET>
 4PP  C 500      29

>  <HETNAM>
     4PP (2S)-(3'-AMIDINO-3-BIPHENYL)-5-(4-PYRIDYLAMINO)PENTANOI
   2 4PP C ACID

>  <Name>
4PP.pdb

>  <RI>
0

>  <Rbt.Current_Directory>
/home/malgorzata/Desktop/rDOCK_IFD/test7/IFD

>  <Rbt.Executable>
rbdock ($Id: //depot/dev/client3/rdock/2013.1/src/exe/rbdock.cxx#4 $)

>  <Rbt.Library>
libRbt.so (2013.1, Build901 2013/11/27)

>  <Rbt.Parameter_File>
/home/malgorzata/Desktop/rDock_2013.1_src/data/scripts/hard_docking.prm

>  <Rbt.Receptor>
cavity.prm

>  <SCORE>
-20.7568

>  <SCORE.INTER>
-12.5176

>  <SCORE.INTER.CONST>
1

>  <SCORE.INTER.POLAR>
-0.942245

>  <SCORE.INTER.REPUL>
0.0729678

>  <SCORE.INTER.ROT>
9

>  <SCORE.INTER.VDW>
-24.0788

>  <SCORE.INTER.norm>
-0.431641

>  <SCORE.INTRA>
-6.20357

>  <SCORE.INTRA.DIHEDRAL>
-7.37571

>  <SCORE.INTRA.DIHEDRAL.0>
20.1331

>  <SCORE.INTRA.POLAR>
0

>  <SCORE.INTRA.POLAR.0>
0

>  <SCORE.INTRA.REPUL>
0

>  <SCORE.INTRA.REPUL.0>
0

>  <SCORE.INTRA.VDW>
-2.51571

>  <SCORE.INTRA.VDW.0>
0.0644272

>  <SCORE.INTRA.norm>
-0.213916

>  <SCORE.RESTR>
0

>  <SCORE.RESTR.CAVITY>
0

>  <SCORE.RESTR.norm>
0

>  <SCORE.SYSTEM>
-2.03564

>  <SCORE.SYSTEM.CONST>
0

>  <SCORE.SYSTEM.DIHEDRAL>
2.00022

>  <SCORE.SYSTEM.POLAR>
-0.0143135

>  <SCORE.SYSTEM.REPUL>
0.0688849

>  <SCORE.SYSTEM.VDW>
-3.33151

>  <SCORE.SYSTEM.norm>
-0.0701945

>  <SCORE.heavy>
29

>  <SCORE.norm>
-0.715752

$$$$
4PP.pdb
  rDOCK(R)          3D
libRbt.so/2013.1/901 2013/11/27
 34 36  0  0  0  0  0  0  0  0999 V2000
    3.0832    7.0963   22.1941 C   0  0  0  0  0  0
    2.3644    7.9165   22.7818 O   0  0  0  0  0  0
    2.6194    5.8350   21.9341 O   0  0  0  0  0  0
    3.4636    9.4527   26.9345 N   0  0  0  0  0  0
    3.7003    9.9238   25.6282 C   0  0  0  0  0  0
    4.8314    9.4712   24.9179 C   0  0  0  0  0  0
    5.7224    8.5532   25.5111 C   0  0  0  0  0  0
    5.4778    8.0786   26.8304 C   0  0  0  0  0  0
    4.3515    8.5304   27.5330 C   0  0  0  0  0  0
    6.9021    8.1063   24.7239 N   0  0  0  0  0  0
    4.4982    7.5210   21.7527 C   0  0  0  0  0  0
    5.5691    6.7318   22.5100 C   0  0  0  0  0  0
    6.8837    7.4922   22.3645 C   0  0  0  0  0  0
    6.9153    8.6547   23.3502 C   0  0  0  0  0  0
    5.9852    1.9358   13.4572 N   0  0  0  0  0  0
    6.3394    4.1937   13.4924 N   0  0  0  0  0  0
    6.0098    3.0799   14.1154 C   0  0  0  0  0  0
    4.8961    7.0599   17.4089 C   0  0  0  0  0  0
    4.7175    8.3480   17.9843 C   0  0  0  0  0  0
    4.5913    8.4830   19.3912 C   0  0  0  0  0  0
    4.6410    7.3338   20.2335 C   0  0  0  0  0  0
    4.8189    6.0327   19.6595 C   0  0  0  0  0  0
    4.9478    5.8926   18.2438 C   0  0  0  0  0  0
    5.2147    2.0221   17.7736 C   0  0  0  0  0  0
    5.0199    3.2937   18.3878 C   0  0  0  0  0  0
    5.1493    4.4884   17.6099 C   0  0  0  0  0  0
    5.4719    4.3936   16.2308 C   0  0  0  0  0  0
    5.6640    3.1320   15.6157 C   0  0  0  0  0  0
    5.5373    1.9417   16.3855 C   0  0  0  0  0  0
    1.7541    5.5905   22.1974 H   0  0  0  0  0  0
    7.5997    7.5092   25.0790 H   0  0  0  0  0  0
    6.2081    1.9146   12.4985 H   0  0  0  0  0  0
    6.5626    4.1739   12.5338 H   0  0  0  0  0  0
    6.3623    5.0453   13.9857 H   0  0  0  0  0  0
  1  2  2  0  0  0
  1  3  1  0  0  0
  1 11  1  0  0  0
  3 30  1  0  0  0
  4  5  2  0  0  0
  4  9  1  0  0  0
  5  6  1  0  0  0
  6  7  2  0  0  0
  7  8  1  0  0  0
  7 10  1  0  0  0
  8  9  2  0  0  0
 10 14  1  0  0  0
 10 31  1  0  0  0
 11 12  1  0  0  0
 11 21  1  0  0  0
 12 13  1  0  0  0
 13 14  1  0  0  0
 15 17  2  0  0  0
 15 32  1  0  0  0
 16 17  1  0  0  0
 16 33  1  0  0  0
 16 34  1  0  0  0
 17 28  1  0  0  0
 18 19  2  0  0  0
 18 23  1  0  0  0
 19 20  1  0  0  0
 20 21  2  0  0  0
 21 22  1  0  0  0
 22 23  2  0  0  0
 23 26  1  0  0  0
 24 25  2  0  0  0
 24 29  1  0  0  0
 25 26  1  0  0  0
 26 27  2  0  0  0
 27 28  1  0  0  0
 28 29  2  0  0  0
M  END
>  <CHROM.0>
99.53473156,-60.67265851,-1.42773188,64.25526362,-175.75299808,57.65761893
-86.36633593,-93.56081883,-175.56504876,-72.93412129

>  <CHROM.1>
0.27375615,114.49994859,-3.62214862,-119.61895792,-162.20300063,103.86586352
79.79846077,64.26003542,-169.02764850,-171.18882600,5.00112823,6.38510198
20.53644672,2.35663664,-1.45373769,1.87009027

>  <FORMUL>
      4PP    C23 H24 N4 O2

>  <HET>
 4PP  C 500      29

>  <HETNAM>
     4PP (2S)-(3'-AMIDINO-3-BIPHENYL)-5-(4-PYRIDYLAMINO)PENTANOI
   2 4PP C ACID

>  <Name>
4PP.pdb

>  <RI>
0

>  <Rbt.Current_Directory>
/home/malgorzata/Desktop/rDOCK_IFD/test7/IFD

>  <Rbt.Executable>
rbdock ($Id: //depot/dev/client3/rdock/2013.1/src/exe/rbdock.cxx#4 $)

>  <Rbt.Library>
libRbt.so (2013.1, Build901 2013/11/27)

>  <Rbt.Parameter_File>
/home/malgorzata/Desktop/rDock_2013.1_src/data/scripts/hard_docking.prm

>  <Rbt.Receptor>
cavity.prm

>  <SCORE>
-17.9386

>  <SCORE.INTER>
-8.66158

>  <SCORE.INTER.CONST>
1

>  <SCORE.INTER.POLAR>
-0.6

>  <SCORE.INTER.REPUL>
0.00324075

>  <SCORE.INTER.ROT>
9

>  <SCORE.INTER.VDW>
-21.0378

>  <SCORE.INTER.norm>
-0.298675

>  <SCORE.INTRA>
-6.45324

>  <SCORE.INTRA.DIHEDRAL>
-12.9071

>  <SCORE.INTRA.DIHEDRAL.0>
20.1331

>  <SCORE.INTRA.POLAR>
0

>  <SCORE.INTRA.POLAR.0>
0

>  <SCORE.INTRA.REPUL>
0

>  <SCORE.INTRA.REPUL.0>
0

>  <SCORE.INTRA.VDW>
0.000293717

>  <SCORE.INTRA.VDW.0>
0.0644272

>  <SCORE.INTRA.norm>
-0.222525

>  <SCORE.RESTR>
0.0995159

>  <SCORE.RESTR.CAVITY>
0.0995159

>  <SCORE.RESTR.norm>
0.00343158

>  <SCORE.SYSTEM>
-2.92326

>  <SCORE.SYSTEM.CONST>
0

>  <SCORE.SYSTEM.DIHEDRAL>
4.71937

>  <SCORE.SYSTEM.POLAR>
-1.00579

>  <SCORE.SYSTEM.VDW>
-1.86325

>  <SCORE.SYSTEM.norm>
-0.100802

>  <SCORE.heavy>
29

>  <SCORE.norm>
-0.618571

$$$$
4PP.pdb
  rDOCK(R)          3D
libRbt.so/2013.1/901 2013/11/27
 34 36  0  0  0  0  0  0  0  0999 V2000
    1.7695    5.9293   24.7162 C   0  0  0  0  0  0
    2.5836    5.9462   25.6498 O   0  0  0  0  0  0
    0.4381    5.7333   24.9661 O   0  0  0  0  0  0
    5.6783    1.7617   18.1007 N   0  0  0  0  0  0
    5.0958    0.9001   19.0509 C   0  0  0  0  0  0
    3.9433    1.3119   19.7516 C   0  0  0  0  0  0
    3.3767    2.5794   19.5048 C   0  0  0  0  0  0
    3.9678    3.4454   18.5424 C   0  0  0  0  0  0
    5.1132    3.0319   17.8471 C   0  0  0  0  0  0
    2.1628    2.9702   20.2695 N   0  0  0  0  0  0
    2.2768    6.1426   23.2758 C   0  0  0  0  0  0
    1.6362    5.1384   22.3142 C   0  0  0  0  0  0
    2.3211    5.3028   20.9610 C   0  0  0  0  0  0
    1.7030    4.3401   19.9534 C   0  0  0  0  0  0
    7.5027    8.7980   19.8708 N   0  0  0  0  0  0
    7.9058   10.4221   18.3137 N   0  0  0  0  0  0
    7.1173    9.8802   19.2202 C   0  0  0  0  0  0
    1.4004   10.2671   22.0673 C   0  0  0  0  0  0
    0.5108    9.5616   22.9234 C   0  0  0  0  0  0
    0.8070    8.2281   23.3076 C   0  0  0  0  0  0
    1.9921    7.5888   22.8391 C   0  0  0  0  0  0
    2.8918    8.2938   21.9745 C   0  0  0  0  0  0
    2.5980    9.6368   21.5865 C   0  0  0  0  0  0
    4.1247   12.3655   19.2422 C   0  0  0  0  0  0
    3.2094   11.6812   20.0943 C   0  0  0  0  0  0
    3.5693   10.4147   20.6562 C   0  0  0  0  0  0
    4.8378    9.8519   20.3574 C   0  0  0  0  0  0
    5.7514   10.5296   19.5130 C   0  0  0  0  0  0
    5.3974   11.7885   18.9513 C   0  0  0  0  0  0
    0.1351    5.6444   25.8482 H   0  0  0  0  0  0
    1.7133    2.3803   20.9169 H   0  0  0  0  0  0
    8.3779    8.3917   19.6753 H   0  0  0  0  0  0
    8.7813   10.0169   18.1172 H   0  0  0  0  0  0
    7.6194   11.2321   17.8330 H   0  0  0  0  0  0
  1  2  2  0  0  0
  1  3  1  0  0  0
  1 11  1  0  0  0
  3 30  1  0  0  0
  4  5  2  0  0  0
  4  9  1  0  0  0
  5  6  1  0  0  0
  6  7  2  0  0  0
  7  8  1  0  0  0
  7 10  1  0  0  0
  8  9  2  0  0  0
 10 14  1  0  0  0
 10 31  1  0  0  0
 11 12  1  0  0  0
 11 21  1  0  0  0
 12 13  1  0  0  0
 13 14  1  0  0  0
 15 17  2  0  0  0
 15 32  1  0  0  0
 16 17  1  0  0  0
 16 33  1  0  0  0
 16 34  1  0  0  0
 17 28  1  0  0  0
 18 19  2  0  0  0
 18 23  1  0  0  0
 19 20  1  0  0  0
 20 21  2  0  0  0
 21 22  1  0  0  0
 22 23  2  0  0  0
 23 26  1  0  0  0
 24 25  2  0  0  0
 24 29  1  0  0  0
 25 26  1  0  0  0
 26 27  2  0  0  0
 27 28  1  0  0  0
 28 29  2  0  0  0
M  END
>  <CHROM.0>
108.80884806,-60.67265851,147.90144465,115.56751961,63.10571437,62.87610298
-85.04218200,-67.64074050,177.69439706,-79.48359244

>  <CHROM.1>
2.37168292,135.62241561,177.78362976,-93.40223098,-172.93084936,-34.55159124
-178.99756444,-73.30673568,-8.41608810,-9.60444657,3.50588699,6.97125570
20.93176805,1.79128454,-0.81456904,-2.98996714

>  <FORMUL>
      4PP    C23 H24 N4 O2

>  <HET>
 4PP  C 500      29

>  <HETNAM>
     4PP (2S)-(3'-AMIDINO-3-BIPHENYL)-5-(4-PYRIDYLAMINO)PENTANOI
   2 4PP C ACID

>  <Name>
4PP.pdb

>  <RI>
0

>  <Rbt.Current_Directory>
/home/malgorzata/Desktop/rDOCK_IFD/test7/IFD

>  <Rbt.Executable>
rbdock ($Id: //depot/dev/client3/rdock/2013.1/src/exe/rbdock.cxx#4 $)

>  <Rbt.Library>
libRbt.so (2013.1, Build901 2013/11/27)

>  <Rbt.Parameter_File>
/home/malgorzata/Desktop/rDock_2013.1_src/data/scripts/hard_docking.prm

>  <Rbt.Receptor>
cavity.prm

>  <SCORE>
-11.8866

>  <SCORE.INTER>
-2.41978

>  <SCORE.INTER.CONST>
1

>  <SCORE.INTER.POLAR>
-0.632456

>  <SCORE.INTER.REPUL>
0

>  <SCORE.INTER.ROT>
9

>  <SCORE.INTER.VDW>
-14.6694

>  <SCORE.INTER.norm>
-0.0834408

>  <SCORE.INTRA>
-7.26802

>  <SCORE.INTRA.DIHEDRAL>
-14.6712

>  <SCORE.INTRA.DIHEDRAL.0>
20.1331

>  <SCORE.INTRA.POLAR>
0

>  <SCORE.INTRA.POLAR.0>
0

>  <SCORE.INTRA.REPUL>
0

>  <SCORE.INTRA.REPUL.0>
0

>  <SCORE.INTRA.VDW>
0.067597

>  <SCORE.INTRA.VDW.0>
0.0644272

>  <SCORE.INTRA.norm>
-0.250621

>  <SCORE.RESTR>
0.160729

>  <SCORE.RESTR.CAVITY>
0.160729

>  <SCORE.RESTR.norm>
0.00554239

>  <SCORE.SYSTEM>
-2.35948

>  <SCORE.SYSTEM.CONST>
0

>  <SCORE.SYSTEM.DIHEDRAL>
5.72237

>  <SCORE.SYSTEM.POLAR>
-0.970029

>  <SCORE.SYSTEM.VDW>
-1.92256

>  <SCORE.SYSTEM.norm>
-0.0813613

>  <SCORE.heavy>
29

>  <SCORE.norm>
-0.409881

$$$$
4PP.pdb
  rDOCK(R)          3D
libRbt.so/2013.1/901 2013/11/27
 34 36  0  0  0  0  0  0  0  0999 V2000
    3.2666   10.1196   20.8777 C   0  0  0  0  0  0
    3.2707   10.8201   19.8559 O   0  0  0  0  0  0
    2.2123   10.1770   21.7485 O   0  0  0  0  0  0
    3.9654    9.5577   27.8569 N   0  0  0  0  0  0
    4.1631   10.2284   26.6340 C   0  0  0  0  0  0
    4.9617    9.6350   25.6344 C   0  0  0  0  0  0
    5.5610    8.3781   25.8568 C   0  0  0  0  0  0
    5.3566    7.7036   27.0933 C   0  0  0  0  0  0
    4.5612    8.2965   28.0843 C   0  0  0  0  0  0
    6.3959    7.7936   24.7741 N   0  0  0  0  0  0
    4.4582    9.1783   21.1454 C   0  0  0  0  0  0
    5.1473    9.5279   22.4668 C   0  0  0  0  0  0
    6.4491    8.7347   22.5257 C   0  0  0  0  0  0
    7.0397    8.8222   23.9284 C   0  0  0  0  0  0
    5.8137    0.0303   17.7081 N   0  0  0  0  0  0
    6.5166    0.9832   19.6632 N   0  0  0  0  0  0
    5.8585    1.0669   18.5243 C   0  0  0  0  0  0
    3.0413    5.0275   21.2004 C   0  0  0  0  0  0
    2.7286    5.9108   22.2700 C   0  0  0  0  0  0
    3.1923    7.2516   22.2389 C   0  0  0  0  0  0
    3.9725    7.7197   21.1413 C   0  0  0  0  0  0
    4.2927    6.8339   20.0612 C   0  0  0  0  0  0
    3.8266    5.4839   20.0879 C   0  0  0  0  0  0
    4.1320    3.9191   16.5198 C   0  0  0  0  0  0
    3.8133    4.8325   17.5668 C   0  0  0  0  0  0
    4.1600    4.5159   18.9192 C   0  0  0  0  0  0
    4.8192    3.2914   19.2039 C   0  0  0  0  0  0
    5.1401    2.3818   18.1663 C   0  0  0  0  0  0
    4.7964    2.6920   16.8205 C   0  0  0  0  0  0
    1.4907   10.7486   21.5736 H   0  0  0  0  0  0
    6.5081    6.8254   24.6350 H   0  0  0  0  0  0
    6.2767   -0.8050   17.9474 H   0  0  0  0  0  0
    6.9799    0.1486   19.9039 H   0  0  0  0  0  0
    6.5448    1.7554   20.2734 H   0  0  0  0  0  0
  1  2  2  0  0  0
  1  3  1  0  0  0
  1 11  1  0  0  0
  3 30  1  0  0  0
  4  5  2  0  0  0
  4  9  1  0  0  0
  5  6  1  0  0  0
  6  7  2  0  0  0
  7  8  1  0  0  0
  7 10  1  0  0  0
  8  9  2  0  0  0
 10 14  1  0  0  0
 10 31  1  0  0  0
 11 12  1  0  0  0
 11 21  1  0  0  0
 12 13  1  0  0  0
 13 14  1  0  0  0
 15 17  2  0  0  0
 15 32  1  0  0  0
 16 17  1  0  0  0
 16 33  1  0  0  0
 16 34  1  0  0  0
 17 28  1  0  0  0
 18 19  2  0  0  0
 18 23  1  0  0  0
 19 20  1  0  0  0
 20 21  2  0  0  0
 21 22  1  0  0  0
 22 23  2  0  0  0
 23 26  1  0  0  0
 24 25  2  0  0  0
 24 29  1  0  0  0
 25 26  1  0  0  0
 26 27  2  0  0  0
 27 28  1  0  0  0
 28 29  2  0  0  0
M  END
>  <CHROM.0>
-88.75572189,-60.67265851,147.73011711,26.62496124,-60.13504585,64.26830677
-86.02446977,38.57071700,174.37531052,-77.09086723

>  <CHROM.1>
-0.09689446,119.94032966,29.17333096,-113.74412531,-169.66151066,-72.35657100
-168.70305127,83.92315830,158.95902171,123.56460151,4.59212808,6.62176412
21.69075555,1.65731862,-1.14938181,0.88969441

>  <FORMUL>
      4PP    C23 H24 N4 O2

>  <HET>
 4PP  C 500      29

>  <HETNAM>
     4PP (2S)-(3'-AMIDINO-3-BIPHENYL)-5-(4-PYRIDYLAMINO)PENTANOI
   2 4PP C ACID

>  <Name>
4PP.pdb

>  <RI>
0

>  <Rbt.Current_Directory>
/home/malgorzata/Desktop/rDOCK_IFD/test7/IFD

>  <Rbt.Executable>
rbdock ($Id: //depot/dev/client3/rdock/2013.1/src/exe/rbdock.cxx#4 $)

>  <Rbt.Library>
libRbt.so (2013.1, Build901 2013/11/27)

>  <Rbt.Parameter_File>
/home/malgorzata/Desktop/rDock_2013.1_src/data/scripts/hard_docking.prm

>  <Rbt.Receptor>
cavity.prm

>  <SCORE>
-17.809

>  <SCORE.INTER>
-10.8421

>  <SCORE.INTER.CONST>
1

>  <SCORE.INTER.POLAR>
-1.74284

>  <SCORE.INTER.REPUL>
0

>  <SCORE.INTER.ROT>
9

>  <SCORE.INTER.VDW>
-19.3165

>  <SCORE.INTER.norm>
-0.373867

>  <SCORE.INTRA>
-4.15073

>  <SCORE.INTRA.DIHEDRAL>
-5.45541

>  <SCORE.INTRA.DIHEDRAL.0>
20.1331

>  <SCORE.INTRA.POLAR>
0

>  <SCORE.INTRA.POLAR.0>
0

>  <SCORE.INTRA.REPUL>
0

>  <SCORE.INTRA.REPUL.0>
0

>  <SCORE.INTRA.VDW>
-1.42302

>  <SCORE.INTRA.VDW.0>
0.0644272

>  <SCORE.INTRA.norm>
-0.143129

>  <SCORE.RESTR>
0

>  <SCORE.RESTR.CAVITY>
0

>  <SCORE.RESTR.norm>
0

>  <SCORE.SYSTEM>
-2.81611

>  <SCORE.SYSTEM.CONST>
0

>  <SCORE.SYSTEM.DIHEDRAL>
6.05651

>  <SCORE.SYSTEM.POLAR>
-1.40357

>  <SCORE.SYSTEM.VDW>
-1.07222

>  <SCORE.SYSTEM.norm>
-0.0971074

>  <SCORE.heavy>
29

>  <SCORE.norm>
-0.614103

$$$$
4PP.pdb
  rDOCK(R)          3D
libRbt.so/2013.1/901 2013/11/27
 34 36  0  0  0  0  0  0  0  0999 V2000
    1.5983   -1.2826   20.2839 C   0  0  0  0  0  0
    2.1618   -1.7659   21.2757 O   0  0  0  0  0  0
    2.1369   -1.4473   19.0365 O   0  0  0  0  0  0
   -0.2788    5.3046   22.7886 N   0  0  0  0  0  0
    0.7503    4.4752   23.2759 C   0  0  0  0  0  0
    0.4578    3.1470   23.6488 C   0  0  0  0  0  0
   -0.8573    2.6507   23.5368 C   0  0  0  0  0  0
   -1.8932    3.4921   23.0420 C   0  0  0  0  0  0
   -1.5981    4.8118   22.6714 C   0  0  0  0  0  0
   -1.1175    1.2445   23.9441 N   0  0  0  0  0  0
    0.2805   -0.5052   20.4757 C   0  0  0  0  0  0
   -0.2094   -0.6047   21.9226 C   0  0  0  0  0  0
    0.7568    0.1993   22.7871 C   0  0  0  0  0  0
    0.1248    0.4680   24.1482 C   0  0  0  0  0  0
    4.9846    0.8352   15.2987 N   0  0  0  0  0  0
    6.7556    2.2725   15.1492 N   0  0  0  0  0  0
    5.5973    1.9397   15.6829 C   0  0  0  0  0  0
    0.7871    3.6915   19.3049 C   0  0  0  0  0  0
   -0.4184    3.2544   19.9194 C   0  0  0  0  0  0
   -0.5687    1.8941   20.2944 C   0  0  0  0  0  0
    0.4822    0.9603   20.0573 C   0  0  0  0  0  0
    1.6989    1.3942   19.4366 C   0  0  0  0  0  0
    1.8548    2.7629   19.0590 C   0  0  0  0  0  0
    4.9905    4.9023   18.1298 C   0  0  0  0  0  0
    3.7833    4.4876   18.7645 C   0  0  0  0  0  0
    3.1721    3.2476   18.3927 C   0  0  0  0  0  0
    3.7765    2.4420   17.3924 C   0  0  0  0  0  0
    4.9775    2.8491   16.7607 C   0  0  0  0  0  0
    5.5880    4.0816   17.1265 C   0  0  0  0  0  0
    1.7093   -1.0780   18.2890 H   0  0  0  0  0  0
   -2.0200    0.8704   24.0649 H   0  0  0  0  0  0
    5.3903    0.2617   14.6090 H   0  0  0  0  0  0
    7.1625    1.6999   14.4595 H   0  0  0  0  0  0
    7.2140    3.0937   15.4404 H   0  0  0  0  0  0
  1  2  2  0  0  0
  1  3  1  0  0  0
  1 11  1  0  0  0
  3 30  1  0  0  0
  4  5  2  0  0  0
  4  9  1  0  0  0
  5  6  1  0  0  0
  6  7  2  0  0  0
  7  8  1  0  0  0
  7 10  1  0  0  0
  8  9  2  0  0  0
 10 14  1  0  0  0
 10 31  1  0  0  0
 11 12  1  0  0  0
 11 21  1  0  0  0
 12 13  1  0  0  0
 13 14  1  0  0  0
 15 17  2  0  0  0
 15 32  1  0  0  0
 16 17  1  0  0  0
 16 33  1  0  0  0
 16 34  1  0  0  0
 17 28  1  0  0  0
 18 19  2  0  0  0
 18 23  1  0  0  0
 19 20  1  0  0  0
 20 21  2  0  0  0
 21 22  1  0  0  0
 22 23  2  0  0  0
 23 26  1  0  0  0
 24 25  2  0  0  0
 24 29  1  0  0  0
 25 26  1  0  0  0
 26 27  2  0  0  0
 27 28  1  0  0  0
 28 29  2  0  0  0
M  END
>  <CHROM.0>
-104.57298656,-60.67265851,-3.61750438,134.49905126,-59.50641765,-61.88184725
-85.27536304,-78.10920838,170.19805613,-78.49042105

>  <CHROM.1>
-179.80998495,-6.64236792,-12.25495596,-71.77721150,69.49311815,-173.07083832
164.15608401,-60.46534064,3.70336708,42.01419505,1.73597310,2.02968250,20.12113708
-3.13480902,0.85186156,0.03785301

>  <FORMUL>
      4PP    C23 H24 N4 O2

>  <HET>
 4PP  C 500      29

>  <HETNAM>
     4PP (2S)-(3'-AMIDINO-3-BIPHENYL)-5-(4-PYRIDYLAMINO)PENTANOI
   2 4PP C ACID

>  <Name>
4PP.pdb

>  <RI>
0

>  <Rbt.Current_Directory>
/home/malgorzata/Desktop/rDOCK_IFD/test7/IFD

>  <Rbt.Executable>
rbdock ($Id: //depot/dev/client3/rdock/2013.1/src/exe/rbdock.cxx#4 $)

>  <Rbt.Library>
libRbt.so (2013.1, Build901 2013/11/27)

>  <Rbt.Parameter_File>
/home/malgorzata/Desktop/rDock_2013.1_src/data/scripts/hard_docking.prm

>  <Rbt.Receptor>
cavity.prm

>  <SCORE>
-6.21763

>  <SCORE.INTER>
0.781269

>  <SCORE.INTER.CONST>
1

>  <SCORE.INTER.POLAR>
-1.31714

>  <SCORE.INTER.REPUL>
0

>  <SCORE.INTER.ROT>
9

>  <SCORE.INTER.VDW>
-9.14047

>  <SCORE.INTER.norm>
0.0269403

>  <SCORE.INTRA>
-4.30986

>  <SCORE.INTRA.DIHEDRAL>
-12.0374

>  <SCORE.INTRA.DIHEDRAL.0>
20.1331

>  <SCORE.INTRA.POLAR>
0

>  <SCORE.INTRA.POLAR.0>
0

>  <SCORE.INTRA.REPUL>
0

>  <SCORE.INTRA.REPUL.0>
0

>  <SCORE.INTRA.VDW>
1.70883

>  <SCORE.INTRA.VDW.0>
0.0644272

>  <SCORE.INTRA.norm>
-0.148616

>  <SCORE.RESTR>
0.187181

>  <SCORE.RESTR.CAVITY>
0.187181

>  <SCORE.RESTR.norm>
0.0064545

>  <SCORE.SYSTEM>
-2.87622

>  <SCORE.SYSTEM.CONST>
0

>  <SCORE.SYSTEM.DIHEDRAL>
4.82012

>  <SCORE.SYSTEM.POLAR>
-0.976313

>  <SCORE.SYSTEM.VDW>
-1.96682

>  <SCORE.SYSTEM.norm>
-0.09918

>  <SCORE.heavy>
29

>  <SCORE.norm>
-0.214401

$$$$
4PP.pdb
  rDOCK(R)          3D
libRbt.so/2013.1/901 2013/11/27
 34 36  0  0  0  0  0  0  0  0999 V2000
    2.8503    9.7013   24.8443 C   0  0  0  0  0  0
    3.0303   10.5949   25.6833 O   0  0  0  0  0  0
    2.3372   10.0057   23.6124 O   0  0  0  0  0  0
    0.3765    0.2502   24.6031 N   0  0  0  0  0  0
    0.1663    1.5062   24.0008 C   0  0  0  0  0  0
    0.5634    2.6788   24.6762 C   0  0  0  0  0  0
    1.1663    2.5964   25.9483 C   0  0  0  0  0  0
    1.3783    1.3249   26.5518 C   0  0  0  0  0  0
    0.9829    0.1614   25.8765 C   0  0  0  0  0  0
    1.5662    3.8600   26.6223 N   0  0  0  0  0  0
    3.2221    8.2490   25.2050 C   0  0  0  0  0  0
    1.9796    7.3554   25.2330 C   0  0  0  0  0  0
    2.3817    6.0361   25.8850 C   0  0  0  0  0  0
    1.2082    5.0640   25.8412 C   0  0  0  0  0  0
    1.0770    2.9465   21.2064 N   0  0  0  0  0  0
    1.4888    2.1285   19.1122 N   0  0  0  0  0  0
    1.7831    2.9606   20.0910 C   0  0  0  0  0  0
    6.2464    6.7763   22.3899 C   0  0  0  0  0  0
    6.6297    7.5417   23.5254 C   0  0  0  0  0  0
    5.6412    8.0109   24.4289 C   0  0  0  0  0  0
    4.2633    7.7210   24.2047 C   0  0  0  0  0  0
    3.8704    6.9518   23.0611 C   0  0  0  0  0  0
    4.8626    6.4763   22.1500 C   0  0  0  0  0  0
    4.7287    4.9762   18.5438 C   0  0  0  0  0  0
    5.1362    5.7626   19.6609 C   0  0  0  0  0  0
    4.4503    5.6345   20.9109 C   0  0  0  0  0  0
    3.3679    4.7231   21.0247 C   0  0  0  0  0  0
    2.9612    3.9379   19.9180 C   0  0  0  0  0  0
    3.6396    4.0627   18.6730 C   0  0  0  0  0  0
    2.2391   10.9009   23.3539 H   0  0  0  0  0  0
    2.0208    3.8918   27.4950 H   0  0  0  0  0  0
    0.3262    2.3175   21.3057 H   0  0  0  0  0  0
    0.7383    1.4989   19.2102 H   0  0  0  0  0  0
    2.0195    2.1365   18.2830 H   0  0  0  0  0  0
  1  2  2  0  0  0
  1  3  1  0  0  0
  1 11  1  0  0  0
  3 30  1  0  0  0
  4  5  2  0  0  0
  4  9  1  0  0  0
  5  6  1  0  0  0
  6  7  2  0  0  0
  7  8  1  0  0  0
  7 10  1  0  0  0
  8  9  2  0  0  0
 10 14  1  0  0  0
 10 31  1  0  0  0
 11 12  1  0  0  0
 11 21  1  0  0  0
 12 13  1  0  0  0
 13 14  1  0  0  0
 15 17  2  0  0  0
 15 32  1  0  0  0
 16 17  1  0  0  0
 16 33  1  0  0  0
 16 34  1  0  0  0
 17 28  1  0  0  0
 18 19  2  0  0  0
 18 23  1  0  0  0
 19 20  1  0  0  0
 20 21  2  0  0  0
 21 22  1  0  0  0
 22 23  2  0  0  0
 23 26  1  0  0  0
 24 25  2  0  0  0
 24 29  1  0  0  0
 25 26  1  0  0  0
 26 27  2  0  0  0
 27 28  1  0  0  0
 28 29  2  0  0  0
M  END
>  <CHROM.0>
98.52288173,-60.67265851,2.24572250,133.08339466,-178.56892590,-61.31872291
-179.94721475,160.47843617,-62.42847039,-137.21051302

>  <CHROM.1>
9.02363660,115.59776781,2.23195094,-136.96278544,-167.85535383,84.22842090
-175.59789419,-173.14304925,6.67083072,-36.17726627,2.82172746,5.20871110
23.25581608,0.65340559,1.03808287,0.90074743

>  <FORMUL>
      4PP    C23 H24 N4 O2

>  <HET>
 4PP  C 500      29

>  <HETNAM>
     4PP (2S)-(3'-AMIDINO-3-BIPHENYL)-5-(4-PYRIDYLAMINO)PENTANOI
   2 4PP C ACID

>  <Name>
4PP.pdb

>  <RI>
0

>  <Rbt.Current_Directory>
/home/malgorzata/Desktop/rDOCK_IFD/test7/IFD

>  <Rbt.Executable>
rbdock ($Id: //depot/dev/client3/rdock/2013.1/src/exe/rbdock.cxx#4 $)

>  <Rbt.Library>
libRbt.so (2013.1, Build901 2013/11/27)

>  <Rbt.Parameter_File>
/home/malgorzata/Desktop/rDock_2013.1_src/data/scripts/hard_docking.prm

>  <Rbt.Receptor>
cavity.prm

>  <SCORE>
-15.1855

>  <SCORE.INTER>
-6.97302

>  <SCORE.INTER.CONST>
1

>  <SCORE.INTER.POLAR>
-0.884927

>  <SCORE.INTER.REPUL>
0.0273938

>  <SCORE.INTER.ROT>
9

>  <SCORE.INTER.VDW>
-18.5012

>  <SCORE.INTER.norm>
-0.240449

>  <SCORE.INTRA>
-6.17475

>  <SCORE.INTRA.DIHEDRAL>
-12.9637

>  <SCORE.INTRA.DIHEDRAL.0>
20.1331

>  <SCORE.INTRA.POLAR>
0

>  <SCORE.INTRA.POLAR.0>
0

>  <SCORE.INTRA.REPUL>
0

>  <SCORE.INTRA.REPUL.0>
0

>  <SCORE.INTRA.VDW>
0.307073

>  <SCORE.INTRA.VDW.0>
0.0644272

>  <SCORE.INTRA.norm>
-0.212923

>  <SCORE.RESTR>
0

>  <SCORE.RESTR.CAVITY>
0

>  <SCORE.RESTR.norm>
0

>  <SCORE.SYSTEM>
-2.03775

>  <SCORE.SYSTEM.CONST>
0

>  <SCORE.SYSTEM.DIHEDRAL>
1.65908

>  <SCORE.SYSTEM.POLAR>
-0.00538352

>  <SCORE.SYSTEM.VDW>
-2.84898

>  <SCORE.SYSTEM.norm>
-0.0702671

>  <SCORE.heavy>
29

>  <SCORE.norm>
-0.523639

$$$$
