4PP.pdb
  rDOCK(R)          3D
libRbt.so/2013.1/901 2013/11/27
 34 36  0  0  0  0  0  0  0  0999 V2000
    2.0168   20.3859   21.0546 C   0  0  0  0  0  0
    0.7864   20.4116   20.9133 O   0  0  0  0  0  0
    2.5711   20.5298   22.2978 O   0  0  0  0  0  0
    6.2772   18.7980   15.8580 N   0  0  0  0  0  0
    5.0467   18.1712   16.1362 C   0  0  0  0  0  0
    3.9377   18.9522   16.5219 C   0  0  0  0  0  0
    4.0584   20.3530   16.6304 C   0  0  0  0  0  0
    5.3032   20.9818   16.3464 C   0  0  0  0  0  0
    6.4034   20.2017   15.9623 C   0  0  0  0  0  0
    2.8620   21.1341   17.0423 N   0  0  0  0  0  0
    2.9092   20.1792   19.8142 C   0  0  0  0  0  0
    3.8774   21.3510   19.6335 C   0  0  0  0  0  0
    3.0830   22.5113   19.0419 C   0  0  0  0  0  0
    3.2015   22.4914   17.5221 C   0  0  0  0  0  0
    2.7986   12.0565   22.6453 N   0  0  0  0  0  0
    2.0348   10.4941   21.1621 N   0  0  0  0  0  0
    2.4171   11.7278   21.4250 C   0  0  0  0  0  0
    5.1325   16.4174   20.1961 C   0  0  0  0  0  0
    5.7662   17.6608   20.4687 C   0  0  0  0  0  0
    5.0349   18.8703   20.3424 C   0  0  0  0  0  0
    3.6668   18.8476   19.9418 C   0  0  0  0  0  0
    3.0230   17.5977   19.6639 C   0  0  0  0  0  0
    3.7551   16.3778   19.7912 C   0  0  0  0  0  0
    1.8330   13.4830   18.0028 C   0  0  0  0  0  0
    2.4589   14.7429   18.2334 C   0  0  0  0  0  0
    3.0663   15.0158   19.5006 C   0  0  0  0  0  0
    3.0383   14.0257   20.5175 C   0  0  0  0  0  0
    2.4196   12.7714   20.2919 C   0  0  0  0  0  0
    1.8135   12.4962   19.0339 C   0  0  0  0  0  0
    2.0216   20.6865   23.0404 H   0  0  0  0  0  0
    1.9424   20.7851   17.0001 H   0  0  0  0  0  0
    2.7929   11.3811   23.3616 H   0  0  0  0  0  0
    2.0287    9.8176   21.8773 H   0  0  0  0  0  0
    1.7555   10.2490   20.2504 H   0  0  0  0  0  0
  1  2  2  0  0  0
  1  3  1  0  0  0
  1 11  1  0  0  0
  3 30  1  0  0  0
  4  5  2  0  0  0
  4  9  1  0  0  0
  5  6  1  0  0  0
  6  7  2  0  0  0
  7  8  1  0  0  0
  7 10  1  0  0  0
  8  9  2  0  0  0
 10 14  1  0  0  0
 10 31  1  0  0  0
 11 12  1  0  0  0
 11 21  1  0  0  0
 12 13  1  0  0  0
 13 14  1  0  0  0
 15 17  2  0  0  0
 15 32  1  0  0  0
 16 17  1  0  0  0
 16 33  1  0  0  0
 16 34  1  0  0  0
 17 28  1  0  0  0
 18 19  2  0  0  0
 18 23  1  0  0  0
 19 20  1  0  0  0
 20 21  2  0  0  0
 21 22  1  0  0  0
 22 23  2  0  0  0
 23 26  1  0  0  0
 24 25  2  0  0  0
 24 29  1  0  0  0
 25 26  1  0  0  0
 26 27  2  0  0  0
 27 28  1  0  0  0
 28 29  2  0  0  0
M  END
>  <CHROM.0>
102.11281574,-59.62221427

>  <CHROM.1>
-2.72562173,121.36855581,162.12874550,-104.74458824,-77.13470035,-101.58351873
-93.59863444,51.21404479,10.16576780,-122.83336298,3.43068069,17.59431926
19.21969048,1.21686740,1.08742208,0.02444925

>  <FORMUL>
      4PP    C23 H24 N4 O2

>  <HET>
 4PP  C 500      29

>  <HETNAM>
     4PP (2S)-(3'-AMIDINO-3-BIPHENYL)-5-(4-PYRIDYLAMINO)PENTANOI
   2 4PP C ACID

>  <Name>
4PP.pdb

>  <RI>
0

>  <Rbt.Current_Directory>
/home/malgorzata/Desktop/rDOCK_IFD/Wyniki/7a_factor_Xa/IFD

>  <Rbt.Executable>
rbdock ($Id: //depot/dev/client3/rdock/2013.1/src/exe/rbdock.cxx#4 $)

>  <Rbt.Library>
libRbt.so (2013.1, Build901 2013/11/27)

>  <Rbt.Parameter_File>
/home/malgorzata/Desktop/rDock_2013.1_src/data/scripts/hard_docking.prm

>  <Rbt.Receptor>
cavity.prm

>  <SCORE>
-9.17338

>  <SCORE.INTER>
-4.04612

>  <SCORE.INTER.CONST>
1

>  <SCORE.INTER.POLAR>
-0.362466

>  <SCORE.INTER.REPUL>
0.00780039

>  <SCORE.INTER.ROT>
9

>  <SCORE.INTER.VDW>
-17.2527

>  <SCORE.INTER.norm>
-0.139521

>  <SCORE.INTRA>
-5.04479

>  <SCORE.INTRA.DIHEDRAL>
-6.26517

>  <SCORE.INTRA.DIHEDRAL.0>
20.1331

>  <SCORE.INTRA.POLAR>
0

>  <SCORE.INTRA.POLAR.0>
0

>  <SCORE.INTRA.REPUL>
0

>  <SCORE.INTRA.REPUL.0>
0

>  <SCORE.INTRA.VDW>
-1.9122

>  <SCORE.INTRA.VDW.0>
0.0644272

>  <SCORE.INTRA.norm>
-0.173958

>  <SCORE.RESTR>
0

>  <SCORE.RESTR.CAVITY>
0

>  <SCORE.RESTR.norm>
0

>  <SCORE.SYSTEM>
-0.0824764

>  <SCORE.SYSTEM.CONST>
0

>  <SCORE.SYSTEM.DIHEDRAL>
0.801745

>  <SCORE.SYSTEM.VDW>
-0.483349

>  <SCORE.SYSTEM.norm>
-0.00284401

>  <SCORE.heavy>
29

>  <SCORE.norm>
-0.316324

$$$$
4PP.pdb
  rDOCK(R)          3D
libRbt.so/2013.1/901 2013/11/27
 34 36  0  0  0  0  0  0  0  0999 V2000
    3.4734   21.6676   13.3324 C   0  0  0  0  0  0
    4.4647   22.3914   13.1642 O   0  0  0  0  0  0
    2.4780   22.0506   14.1902 O   0  0  0  0  0  0
    4.1789   13.6899   11.0034 N   0  0  0  0  0  0
    4.4040   13.7300    9.6134 C   0  0  0  0  0  0
    4.6922   14.9611    8.9888 C   0  0  0  0  0  0
    4.7535   16.1467    9.7498 C   0  0  0  0  0  0
    4.5273   16.1007   11.1542 C   0  0  0  0  0  0
    4.2420   14.8745   11.7716 C   0  0  0  0  0  0
    5.0587   17.4209    9.0467 N   0  0  0  0  0  0
    3.3748   20.3396   12.5551 C   0  0  0  0  0  0
    4.5573   20.1758   11.5969 C   0  0  0  0  0  0
    4.1826   19.0907   10.5921 C   0  0  0  0  0  0
    5.4474   18.5071    9.9725 C   0  0  0  0  0  0
    6.0345   21.9949   18.5511 N   0  0  0  0  0  0
    5.9847   21.3217   20.7348 N   0  0  0  0  0  0
    5.7183   21.0953   19.4640 C   0  0  0  0  0  0
    3.1253   16.9527   15.3311 C   0  0  0  0  0  0
    2.7421   16.7999   13.9703 C   0  0  0  0  0  0
    2.8289   17.9036   13.0826 C   0  0  0  0  0  0
    3.2973   19.1676   13.5469 C   0  0  0  0  0  0
    3.6833   19.3285   14.9176 C   0  0  0  0  0  0
    3.5988   18.2197   15.8142 C   0  0  0  0  0  0
    4.1925   17.5199   19.6130 C   0  0  0  0  0  0
    3.7939   17.3379   18.2565 C   0  0  0  0  0  0
    4.0219   18.3790   17.3007 C   0  0  0  0  0  0
    4.6441   19.5856   17.7156 C   0  0  0  0  0  0
    5.0441   19.7698   19.0621 C   0  0  0  0  0  0
    4.8185   18.7378   20.0159 C   0  0  0  0  0  0
    1.7487   21.4830   14.3449 H   0  0  0  0  0  0
    5.0076   17.5299    8.0696 H   0  0  0  0  0  0
    6.4651   22.8385   18.8197 H   0  0  0  0  0  0
    6.4153   22.1648   21.0049 H   0  0  0  0  0  0
    5.7531   20.6477   21.4141 H   0  0  0  0  0  0
  1  2  2  0  0  0
  1  3  1  0  0  0
  1 11  1  0  0  0
  3 30  1  0  0  0
  4  5  2  0  0  0
  4  9  1  0  0  0
  5  6  1  0  0  0
  6  7  2  0  0  0
  7  8  1  0  0  0
  7 10  1  0  0  0
  8  9  2  0  0  0
 10 14  1  0  0  0
 10 31  1  0  0  0
 11 12  1  0  0  0
 11 21  1  0  0  0
 12 13  1  0  0  0
 13 14  1  0  0  0
 15 17  2  0  0  0
 15 32  1  0  0  0
 16 17  1  0  0  0
 16 33  1  0  0  0
 16 34  1  0  0  0
 17 28  1  0  0  0
 18 19  2  0  0  0
 18 23  1  0  0  0
 19 20  1  0  0  0
 20 21  2  0  0  0
 21 22  1  0  0  0
 22 23  2  0  0  0
 23 26  1  0  0  0
 24 25  2  0  0  0
 24 29  1  0  0  0
 25 26  1  0  0  0
 26 27  2  0  0  0
 27 28  1  0  0  0
 28 29  2  0  0  0
M  END
>  <CHROM.0>
114.97217946,95.14994191

>  <CHROM.1>
-177.20179776,-3.22875075,-164.69990430,-79.62977371,-163.27548860,162.52228382
-158.42718066,177.64236478,-6.34463819,-8.09864318,4.26673098,18.54129139
14.25849923,0.22798930,-1.51720976,-0.19513497

>  <FORMUL>
      4PP    C23 H24 N4 O2

>  <HET>
 4PP  C 500      29

>  <HETNAM>
     4PP (2S)-(3'-AMIDINO-3-BIPHENYL)-5-(4-PYRIDYLAMINO)PENTANOI
   2 4PP C ACID

>  <Name>
4PP.pdb

>  <RI>
0

>  <Rbt.Current_Directory>
/home/malgorzata/Desktop/rDOCK_IFD/Wyniki/7a_factor_Xa/IFD

>  <Rbt.Executable>
rbdock ($Id: //depot/dev/client3/rdock/2013.1/src/exe/rbdock.cxx#4 $)

>  <Rbt.Library>
libRbt.so (2013.1, Build901 2013/11/27)

>  <Rbt.Parameter_File>
/home/malgorzata/Desktop/rDock_2013.1_src/data/scripts/hard_docking.prm

>  <Rbt.Receptor>
cavity.prm

>  <SCORE>
-13.6246

>  <SCORE.INTER>
-8.14492

>  <SCORE.INTER.CONST>
1

>  <SCORE.INTER.POLAR>
-1.3796

>  <SCORE.INTER.REPUL>
0

>  <SCORE.INTER.ROT>
9

>  <SCORE.INTER.VDW>
-17.8543

>  <SCORE.INTER.norm>
-0.280859

>  <SCORE.INTRA>
-5.57103

>  <SCORE.INTRA.DIHEDRAL>
-12.3085

>  <SCORE.INTRA.DIHEDRAL.0>
20.1331

>  <SCORE.INTRA.POLAR>
0

>  <SCORE.INTRA.POLAR.0>
0

>  <SCORE.INTRA.REPUL>
0

>  <SCORE.INTRA.REPUL.0>
0

>  <SCORE.INTRA.VDW>
0.583211

>  <SCORE.INTRA.VDW.0>
0.0644272

>  <SCORE.INTRA.norm>
-0.192104

>  <SCORE.RESTR>
0.523738

>  <SCORE.RESTR.CAVITY>
0.523738

>  <SCORE.RESTR.norm>
0.0180599

>  <SCORE.SYSTEM>
-0.432412

>  <SCORE.SYSTEM.CONST>
0

>  <SCORE.SYSTEM.DIHEDRAL>
0.802017

>  <SCORE.SYSTEM.REPUL>
0.00201414

>  <SCORE.SYSTEM.VDW>
-0.843491

>  <SCORE.SYSTEM.norm>
-0.0149108

>  <SCORE.heavy>
29

>  <SCORE.norm>
-0.469815

$$$$
4PP.pdb
  rDOCK(R)          3D
libRbt.so/2013.1/901 2013/11/27
 34 36  0  0  0  0  0  0  0  0999 V2000
    5.2152   18.8128   17.6274 C   0  0  0  0  0  0
    5.6830   17.7673   17.1555 O   0  0  0  0  0  0
    4.7268   18.8341   18.9058 O   0  0  0  0  0  0
    4.1118   17.5463    9.1590 N   0  0  0  0  0  0
    2.9819   17.4445    9.9941 C   0  0  0  0  0  0
    2.8965   18.2443   11.1525 C   0  0  0  0  0  0
    3.9363   19.1405   11.4753 C   0  0  0  0  0  0
    5.0749   19.2411   10.6273 C   0  0  0  0  0  0
    5.1556   18.4448    9.4759 C   0  0  0  0  0  0
    3.8024   19.9614   12.7078 N   0  0  0  0  0  0
    5.2023   20.0868   16.7588 C   0  0  0  0  0  0
    5.1188   19.7355   15.2712 C   0  0  0  0  0  0
    5.0537   21.0479   14.4961 C   0  0  0  0  0  0
    5.0139   20.7581   12.9999 C   0  0  0  0  0  0
   -0.7107   17.3169   15.0866 N   0  0  0  0  0  0
   -2.9568   17.7380   15.1360 N   0  0  0  0  0  0
   -1.7212   18.0979   15.4209 C   0  0  0  0  0  0
    1.9078   22.7030   18.0001 C   0  0  0  0  0  0
    3.2574   23.0745   18.2498 C   0  0  0  0  0  0
    4.3138   22.2194   17.8418 C   0  0  0  0  0  0
    4.0307   20.9870   17.1833 C   0  0  0  0  0  0
    2.6725   20.6059   16.9305 C   0  0  0  0  0  0
    1.6062   21.4646   17.3382 C   0  0  0  0  0  0
   -2.2988   21.5125   17.1929 C   0  0  0  0  0  0
   -0.9563   21.9109   17.4593 C   0  0  0  0  0  0
    0.1298   21.0668   17.0627 C   0  0  0  0  0  0
   -0.1429   19.8378   16.4067 C   0  0  0  0  0  0
   -1.4755   19.4390   16.1378 C   0  0  0  0  0  0
   -2.5583   20.2747   16.5312 C   0  0  0  0  0  0
    4.7428   18.0552   19.4265 H   0  0  0  0  0  0
    2.9938   19.9734   13.2694 H   0  0  0  0  0  0
   -0.8798   16.4620   14.6287 H   0  0  0  0  0  0
   -3.1274   16.8834   14.6781 H   0  0  0  0  0  0
   -3.7091   18.3238   15.3813 H   0  0  0  0  0  0
  1  2  2  0  0  0
  1  3  1  0  0  0
  1 11  1  0  0  0
  3 30  1  0  0  0
  4  5  2  0  0  0
  4  9  1  0  0  0
  5  6  1  0  0  0
  6  7  2  0  0  0
  7  8  1  0  0  0
  7 10  1  0  0  0
  8  9  2  0  0  0
 10 14  1  0  0  0
 10 31  1  0  0  0
 11 12  1  0  0  0
 11 21  1  0  0  0
 12 13  1  0  0  0
 13 14  1  0  0  0
 15 17  2  0  0  0
 15 32  1  0  0  0
 16 17  1  0  0  0
 16 33  1  0  0  0
 16 34  1  0  0  0
 17 28  1  0  0  0
 18 19  2  0  0  0
 18 23  1  0  0  0
 19 20  1  0  0  0
 20 21  2  0  0  0
 21 22  1  0  0  0
 22 23  2  0  0  0
 23 26  1  0  0  0
 24 25  2  0  0  0
 24 29  1  0  0  0
 25 26  1  0  0  0
 26 27  2  0  0  0
 27 28  1  0  0  0
 28 29  2  0  0  0
M  END
>  <CHROM.0>
152.27843188,99.71106826

>  <CHROM.1>
-0.20672099,28.46554315,174.39336256,-155.12029838,177.72339490,110.63626565
178.20087121,60.86463401,1.43485117,-0.17990495,2.41450781,19.77780456,15.16833352
-2.20015610,-0.10756822,-1.96079411

>  <FORMUL>
      4PP    C23 H24 N4 O2

>  <HET>
 4PP  C 500      29

>  <HETNAM>
     4PP (2S)-(3'-AMIDINO-3-BIPHENYL)-5-(4-PYRIDYLAMINO)PENTANOI
   2 4PP C ACID

>  <Name>
4PP.pdb

>  <RI>
0

>  <Rbt.Current_Directory>
/home/malgorzata/Desktop/rDOCK_IFD/Wyniki/7a_factor_Xa/IFD

>  <Rbt.Executable>
rbdock ($Id: //depot/dev/client3/rdock/2013.1/src/exe/rbdock.cxx#4 $)

>  <Rbt.Library>
libRbt.so (2013.1, Build901 2013/11/27)

>  <Rbt.Parameter_File>
/home/malgorzata/Desktop/rDock_2013.1_src/data/scripts/hard_docking.prm

>  <Rbt.Receptor>
cavity.prm

>  <SCORE>
-6.87517

>  <SCORE.INTER>
0.204312

>  <SCORE.INTER.CONST>
1

>  <SCORE.INTER.POLAR>
-0.6

>  <SCORE.INTER.REPUL>
0

>  <SCORE.INTER.ROT>
9

>  <SCORE.INTER.VDW>
-12.1557

>  <SCORE.INTER.norm>
0.00704523

>  <SCORE.INTRA>
-6.73705

>  <SCORE.INTRA.DIHEDRAL>
-15.2912

>  <SCORE.INTRA.DIHEDRAL.0>
20.1331

>  <SCORE.INTRA.POLAR>
0

>  <SCORE.INTRA.POLAR.0>
0

>  <SCORE.INTRA.REPUL>
0

>  <SCORE.INTRA.REPUL.0>
0

>  <SCORE.INTRA.VDW>
0.908542

>  <SCORE.INTRA.VDW.0>
0.0644272

>  <SCORE.INTRA.norm>
-0.232312

>  <SCORE.RESTR>
0

>  <SCORE.RESTR.CAVITY>
0

>  <SCORE.RESTR.norm>
0

>  <SCORE.SYSTEM>
-0.342432

>  <SCORE.SYSTEM.CONST>
0

>  <SCORE.SYSTEM.DIHEDRAL>
0.799203

>  <SCORE.SYSTEM.REPUL>
0.00052732

>  <SCORE.SYSTEM.VDW>
-0.74467

>  <SCORE.SYSTEM.norm>
-0.011808

>  <SCORE.heavy>
29

>  <SCORE.norm>
-0.237075

$$$$
4PP.pdb
  rDOCK(R)          3D
libRbt.so/2013.1/901 2013/11/27
 34 36  0  0  0  0  0  0  0  0999 V2000
    4.1546   19.5796    8.4994 C   0  0  0  0  0  0
    4.8666   19.2155    7.5532 O   0  0  0  0  0  0
    3.1815   20.5226    8.3067 O   0  0  0  0  0  0
    2.4027   17.0534   15.0040 N   0  0  0  0  0  0
    3.4636   16.1326   15.1095 C   0  0  0  0  0  0
    4.1334   15.7040   13.9448 C   0  0  0  0  0  0
    3.7435   16.1920   12.6806 C   0  0  0  0  0  0
    2.6722   17.1237   12.5795 C   0  0  0  0  0  0
    2.0095   17.5482   13.7400 C   0  0  0  0  0  0
    4.4781   15.7096   11.4812 N   0  0  0  0  0  0
    4.3743   18.9480    9.8887 C   0  0  0  0  0  0
    5.4632   17.8733    9.8367 C   0  0  0  0  0  0
    4.8340   16.6154    9.2458 C   0  0  0  0  0  0
    3.7977   16.0570   10.2146 C   0  0  0  0  0  0
    2.5670   23.7033   17.0179 N   0  0  0  0  0  0
    2.8749   22.5334   18.9573 N   0  0  0  0  0  0
    3.0360   22.6458   17.6540 C   0  0  0  0  0  0
    5.4057   22.1277   12.7286 C   0  0  0  0  0  0
    5.5900   22.3202   11.3319 C   0  0  0  0  0  0
    5.2510   21.2837   10.4240 C   0  0  0  0  0  0
    4.7274   20.0474   10.9036 C   0  0  0  0  0  0
    4.5410   19.8465   12.3103 C   0  0  0  0  0  0
    4.8796   20.8880   13.2275 C   0  0  0  0  0  0
    4.9498   19.3621   16.8247 C   0  0  0  0  0  0
    5.1585   19.5159   15.4229 C   0  0  0  0  0  0
    4.6747   20.6856   14.7543 C   0  0  0  0  0  0
    3.9897   21.6829   15.4969 C   0  0  0  0  0  0
    3.7823   21.5353   16.8905 C   0  0  0  0  0  0
    4.2606   20.3735   17.5591 C   0  0  0  0  0  0
    2.6348   20.7846    9.0213 H   0  0  0  0  0  0
    5.3265   15.2122   11.5254 H   0  0  0  0  0  0
    2.0917   24.4068   17.5163 H   0  0  0  0  0  0
    2.3998   23.2361   19.4570 H   0  0  0  0  0  0
    3.2296   21.7467   19.4312 H   0  0  0  0  0  0
  1  2  2  0  0  0
  1  3  1  0  0  0
  1 11  1  0  0  0
  3 30  1  0  0  0
  4  5  2  0  0  0
  4  9  1  0  0  0
  5  6  1  0  0  0
  6  7  2  0  0  0
  7  8  1  0  0  0
  7 10  1  0  0  0
  8  9  2  0  0  0
 10 14  1  0  0  0
 10 31  1  0  0  0
 11 12  1  0  0  0
 11 21  1  0  0  0
 12 13  1  0  0  0
 13 14  1  0  0  0
 15 17  2  0  0  0
 15 32  1  0  0  0
 16 17  1  0  0  0
 16 33  1  0  0  0
 16 34  1  0  0  0
 17 28  1  0  0  0
 18 19  2  0  0  0
 18 23  1  0  0  0
 19 20  1  0  0  0
 20 21  2  0  0  0
 21 22  1  0  0  0
 22 23  2  0  0  0
 23 26  1  0  0  0
 24 25  2  0  0  0
 24 29  1  0  0  0
 25 26  1  0  0  0
 26 27  2  0  0  0
 27 28  1  0  0  0
 28 29  2  0  0  0
M  END
>  <CHROM.0>
105.75503987,-52.75822010

>  <CHROM.1>
178.92313617,-2.50374536,167.51869692,133.93379702,-78.54030075,-21.61652406
-67.19507234,-60.88681840,1.65767919,-130.79039798,4.09201201,19.40525983
13.03199893,-1.02132859,1.37850907,0.60759231

>  <FORMUL>
      4PP    C23 H24 N4 O2

>  <HET>
 4PP  C 500      29

>  <HETNAM>
     4PP (2S)-(3'-AMIDINO-3-BIPHENYL)-5-(4-PYRIDYLAMINO)PENTANOI
   2 4PP C ACID

>  <Name>
4PP.pdb

>  <RI>
0

>  <Rbt.Current_Directory>
/home/malgorzata/Desktop/rDOCK_IFD/Wyniki/7a_factor_Xa/IFD

>  <Rbt.Executable>
rbdock ($Id: //depot/dev/client3/rdock/2013.1/src/exe/rbdock.cxx#4 $)

>  <Rbt.Library>
libRbt.so (2013.1, Build901 2013/11/27)

>  <Rbt.Parameter_File>
/home/malgorzata/Desktop/rDock_2013.1_src/data/scripts/hard_docking.prm

>  <Rbt.Receptor>
cavity.prm

>  <SCORE>
-16.1578

>  <SCORE.INTER>
-9.30141

>  <SCORE.INTER.CONST>
1

>  <SCORE.INTER.POLAR>
-1.41165

>  <SCORE.INTER.REPUL>
0

>  <SCORE.INTER.ROT>
9

>  <SCORE.INTER.VDW>
-18.9018

>  <SCORE.INTER.norm>
-0.320738

>  <SCORE.INTRA>
-6.80744

>  <SCORE.INTRA.DIHEDRAL>
-11.4925

>  <SCORE.INTRA.DIHEDRAL.0>
20.1331

>  <SCORE.INTRA.POLAR>
0

>  <SCORE.INTRA.POLAR.0>
0

>  <SCORE.INTRA.REPUL>
0

>  <SCORE.INTRA.REPUL.0>
0

>  <SCORE.INTRA.VDW>
-1.0612

>  <SCORE.INTRA.VDW.0>
0.0644272

>  <SCORE.INTRA.norm>
-0.234739

>  <SCORE.RESTR>
0

>  <SCORE.RESTR.CAVITY>
0

>  <SCORE.RESTR.norm>
0

>  <SCORE.SYSTEM>
-0.0489639

>  <SCORE.SYSTEM.CONST>
0

>  <SCORE.SYSTEM.DIHEDRAL>
0.802004

>  <SCORE.SYSTEM.VDW>
-0.449966

>  <SCORE.SYSTEM.norm>
-0.00168841

>  <SCORE.heavy>
29

>  <SCORE.norm>
-0.557166

$$$$
4PP.pdb
  rDOCK(R)          3D
libRbt.so/2013.1/901 2013/11/27
 34 36  0  0  0  0  0  0  0  0999 V2000
   -0.7054   23.0457   20.5842 C   0  0  0  0  0  0
   -1.6209   22.3666   20.0991 O   0  0  0  0  0  0
   -0.6929   23.3300   21.9229 O   0  0  0  0  0  0
   -2.0765   29.4369   15.2246 N   0  0  0  0  0  0
   -3.1243   29.6208   16.1481 C   0  0  0  0  0  0
   -2.9912   29.1248   17.4615 C   0  0  0  0  0  0
   -1.8172   28.4469   17.8495 C   0  0  0  0  0  0
   -0.7607   28.2654   16.9133 C   0  0  0  0  0  0
   -0.8964   28.7608   15.6086 C   0  0  0  0  0  0
   -1.7237   27.9402   19.2443 N   0  0  0  0  0  0
    0.4205   23.5539   19.6612 C   0  0  0  0  0  0
    0.6501   25.0553   19.8515 C   0  0  0  0  0  0
   -0.6281   25.7696   19.4235 C   0  0  0  0  0  0
   -0.4319   27.2779   19.5278 C   0  0  0  0  0  0
    4.6227   16.6896   15.0584 N   0  0  0  0  0  0
    3.0764   16.7694   16.7399 N   0  0  0  0  0  0
    4.0808   17.3174   16.0856 C   0  0  0  0  0  0
    4.0863   21.2981   20.5054 C   0  0  0  0  0  0
    3.3815   21.9485   21.5553 C   0  0  0  0  0  0
    2.1961   22.6739   21.2684 C   0  0  0  0  0  0
    1.7068   22.7567   19.9319 C   0  0  0  0  0  0
    2.4136   22.1050   18.8691 C   0  0  0  0  0  0
    3.6064   21.3725   19.1538 C   0  0  0  0  0  0
    6.2064   20.5647   16.3501 C   0  0  0  0  0  0
    5.5252   21.2508   17.3977 C   0  0  0  0  0  0
    4.3775   20.6547   18.0117 C   0  0  0  0  0  0
    3.9285   19.3830   17.5689 C   0  0  0  0  0  0
    4.6039   18.6966   16.5298 C   0  0  0  0  0  0
    5.7447   19.2858   15.9159 C   0  0  0  0  0  0
   -1.3774   23.0091   22.4765 H   0  0  0  0  0  0
   -2.4445   28.0355   19.9081 H   0  0  0  0  0  0
    4.2800   15.8086   14.7835 H   0  0  0  0  0  0
    2.7328   15.8884   16.4661 H   0  0  0  0  0  0
    2.6699   17.2410   17.5025 H   0  0  0  0  0  0
  1  2  2  0  0  0
  1  3  1  0  0  0
  1 11  1  0  0  0
  3 30  1  0  0  0
  4  5  2  0  0  0
  4  9  1  0  0  0
  5  6  1  0  0  0
  6  7  2  0  0  0
  7  8  1  0  0  0
  7 10  1  0  0  0
  8  9  2  0  0  0
 10 14  1  0  0  0
 10 31  1  0  0  0
 11 12  1  0  0  0
 11 21  1  0  0  0
 12 13  1  0  0  0
 13 14  1  0  0  0
 15 17  2  0  0  0
 15 32  1  0  0  0
 16 17  1  0  0  0
 16 33  1  0  0  0
 16 34  1  0  0  0
 17 28  1  0  0  0
 18 19  2  0  0  0
 18 23  1  0  0  0
 19 20  1  0  0  0
 20 21  2  0  0  0
 21 22  1  0  0  0
 22 23  2  0  0  0
 23 26  1  0  0  0
 24 25  2  0  0  0
 24 29  1  0  0  0
 25 26  1  0  0  0
 26 27  2  0  0  0
 27 28  1  0  0  0
 28 29  2  0  0  0
M  END
>  <CHROM.0>
104.28724568,-104.31879443

>  <CHROM.1>
0.13464396,129.87619262,-178.68847224,-99.33777191,-63.57516627,-53.49243686
-177.23656475,-174.18558211,175.11088184,-81.89134121,1.41154325,23.26206437
18.32506713,2.86962640,0.95176948,-1.17188107

>  <FORMUL>
      4PP    C23 H24 N4 O2

>  <HET>
 4PP  C 500      29

>  <HETNAM>
     4PP (2S)-(3'-AMIDINO-3-BIPHENYL)-5-(4-PYRIDYLAMINO)PENTANOI
   2 4PP C ACID

>  <Name>
4PP.pdb

>  <RI>
0

>  <Rbt.Current_Directory>
/home/malgorzata/Desktop/rDOCK_IFD/Wyniki/7a_factor_Xa/IFD

>  <Rbt.Executable>
rbdock ($Id: //depot/dev/client3/rdock/2013.1/src/exe/rbdock.cxx#4 $)

>  <Rbt.Library>
libRbt.so (2013.1, Build901 2013/11/27)

>  <Rbt.Parameter_File>
/home/malgorzata/Desktop/rDock_2013.1_src/data/scripts/hard_docking.prm

>  <Rbt.Receptor>
cavity.prm

>  <SCORE>
-7.32016

>  <SCORE.INTER>
-0.718416

>  <SCORE.INTER.CONST>
1

>  <SCORE.INTER.POLAR>
0

>  <SCORE.INTER.REPUL>
0

>  <SCORE.INTER.ROT>
9

>  <SCORE.INTER.VDW>
-15.1184

>  <SCORE.INTER.norm>
-0.024773

>  <SCORE.INTRA>
-6.45337

>  <SCORE.INTRA.DIHEDRAL>
-11.1131

>  <SCORE.INTRA.DIHEDRAL.0>
20.1331

>  <SCORE.INTRA.POLAR>
0

>  <SCORE.INTRA.POLAR.0>
0

>  <SCORE.INTRA.REPUL>
0

>  <SCORE.INTRA.REPUL.0>
0

>  <SCORE.INTRA.VDW>
-0.89681

>  <SCORE.INTRA.VDW.0>
0.0644272

>  <SCORE.INTRA.norm>
-0.22253

>  <SCORE.RESTR>
0

>  <SCORE.RESTR.CAVITY>
0

>  <SCORE.RESTR.norm>
0

>  <SCORE.SYSTEM>
-0.148375

>  <SCORE.SYSTEM.CONST>
0

>  <SCORE.SYSTEM.DIHEDRAL>
0.80047

>  <SCORE.SYSTEM.VDW>
-0.54861

>  <SCORE.SYSTEM.norm>
-0.00511639

>  <SCORE.heavy>
29

>  <SCORE.norm>
-0.252419

$$$$
4PP.pdb
  rDOCK(R)          3D
libRbt.so/2013.1/901 2013/11/27
 34 36  0  0  0  0  0  0  0  0999 V2000
    3.0833   16.9638   24.6324 C   0  0  0  0  0  0
    2.6851   17.3495   25.7403 O   0  0  0  0  0  0
    4.3822   16.5654   24.4673 O   0  0  0  0  0  0
    0.4790   25.2327   21.0713 N   0  0  0  0  0  0
    0.3939   25.2574   22.4772 C   0  0  0  0  0  0
    0.7960   24.1282   23.2201 C   0  0  0  0  0  0
    1.2793   22.9792   22.5608 C   0  0  0  0  0  0
    1.3652   22.9599   21.1403 C   0  0  0  0  0  0
    0.9653   24.0850   20.4052 C   0  0  0  0  0  0
    1.6895   21.8125   23.3865 N   0  0  0  0  0  0
    2.0933   16.9296   23.4508 C   0  0  0  0  0  0
    2.2625   18.1612   22.5576 C   0  0  0  0  0  0
    1.8626   19.3806   23.3825 C   0  0  0  0  0  0
    2.0993   20.6489   22.5704 C   0  0  0  0  0  0
    2.5490   11.6217   14.8507 N   0  0  0  0  0  0
    2.4808   10.6195   16.9039 N   0  0  0  0  0  0
    2.4851   11.7118   16.1662 C   0  0  0  0  0  0
    2.6712   13.1905   21.2315 C   0  0  0  0  0  0
    2.7147   13.2000   22.6528 C   0  0  0  0  0  0
    2.5249   14.4164   23.3584 C   0  0  0  0  0  0
    2.2920   15.6320   22.6507 C   0  0  0  0  0  0
    2.2489   15.6294   21.2182 C   0  0  0  0  0  0
    2.4380   14.4068   20.5041 C   0  0  0  0  0  0
    2.2199   15.5453   16.7720 C   0  0  0  0  0  0
    2.2683   15.5994   18.1957 C   0  0  0  0  0  0
    2.3855   14.3892   18.9514 C   0  0  0  0  0  0
    2.4520   13.1443   18.2726 C   0  0  0  0  0  0
    2.4067   13.0860   16.8579 C   0  0  0  0  0  0
    2.2892   14.2865   16.1025 C   0  0  0  0  0  0
    4.9805   16.6079   25.1871 H   0  0  0  0  0  0
    1.6884   21.8144   24.3710 H   0  0  0  0  0  0
    2.5988   10.7380   14.4196 H   0  0  0  0  0  0
    2.5305    9.7351   16.4742 H   0  0  0  0  0  0
    2.4280   10.6880   17.8846 H   0  0  0  0  0  0
  1  2  2  0  0  0
  1  3  1  0  0  0
  1 11  1  0  0  0
  3 30  1  0  0  0
  4  5  2  0  0  0
  4  9  1  0  0  0
  5  6  1  0  0  0
  6  7  2  0  0  0
  7  8  1  0  0  0
  7 10  1  0  0  0
  8  9  2  0  0  0
 10 14  1  0  0  0
 10 31  1  0  0  0
 11 12  1  0  0  0
 11 21  1  0  0  0
 12 13  1  0  0  0
 13 14  1  0  0  0
 15 17  2  0  0  0
 15 32  1  0  0  0
 16 17  1  0  0  0
 16 33  1  0  0  0
 16 34  1  0  0  0
 17 28  1  0  0  0
 18 19  2  0  0  0
 18 23  1  0  0  0
 19 20  1  0  0  0
 20 21  2  0  0  0
 21 22  1  0  0  0
 22 23  2  0  0  0
 23 26  1  0  0  0
 24 25  2  0  0  0
 24 29  1  0  0  0
 25 26  1  0  0  0
 26 27  2  0  0  0
 27 28  1  0  0  0
 28 29  2  0  0  0
M  END
>  <CHROM.0>
99.18184106,-161.22403344

>  <CHROM.1>
-1.82086395,99.35638663,176.57223635,-153.54959209,-65.40457759,40.48842765
176.29892471,179.35852498,-174.79759150,-174.63359281,2.15634121,17.20560614
20.94343521,-2.04326751,1.33380835,-2.22762863

>  <FORMUL>
      4PP    C23 H24 N4 O2

>  <HET>
 4PP  C 500      29

>  <HETNAM>
     4PP (2S)-(3'-AMIDINO-3-BIPHENYL)-5-(4-PYRIDYLAMINO)PENTANOI
   2 4PP C ACID

>  <Name>
4PP.pdb

>  <RI>
0

>  <Rbt.Current_Directory>
/home/malgorzata/Desktop/rDOCK_IFD/Wyniki/7a_factor_Xa/IFD

>  <Rbt.Executable>
rbdock ($Id: //depot/dev/client3/rdock/2013.1/src/exe/rbdock.cxx#4 $)

>  <Rbt.Library>
libRbt.so (2013.1, Build901 2013/11/27)

>  <Rbt.Parameter_File>
/home/malgorzata/Desktop/rDock_2013.1_src/data/scripts/hard_docking.prm

>  <Rbt.Receptor>
cavity.prm

>  <SCORE>
-5.60832

>  <SCORE.INTER>
0.487069

>  <SCORE.INTER.CONST>
1

>  <SCORE.INTER.POLAR>
0

>  <SCORE.INTER.REPUL>
0.0116556

>  <SCORE.INTER.ROT>
9

>  <SCORE.INTER.VDW>
-13.9712

>  <SCORE.INTER.norm>
0.0167955

>  <SCORE.INTRA>
-6.32979

>  <SCORE.INTRA.DIHEDRAL>
-15.3897

>  <SCORE.INTRA.DIHEDRAL.0>
20.1331

>  <SCORE.INTRA.POLAR>
0

>  <SCORE.INTRA.POLAR.0>
0

>  <SCORE.INTRA.REPUL>
0

>  <SCORE.INTRA.REPUL.0>
0

>  <SCORE.INTRA.VDW>
1.36508

>  <SCORE.INTRA.VDW.0>
0.0644272

>  <SCORE.INTRA.norm>
-0.218269

>  <SCORE.RESTR>
0.406594

>  <SCORE.RESTR.CAVITY>
0.406594

>  <SCORE.RESTR.norm>
0.0140205

>  <SCORE.SYSTEM>
-0.172195

>  <SCORE.SYSTEM.CONST>
0

>  <SCORE.SYSTEM.DIHEDRAL>
0.803142

>  <SCORE.SYSTEM.VDW>
-0.573766

>  <SCORE.SYSTEM.norm>
-0.00593777

>  <SCORE.heavy>
29

>  <SCORE.norm>
-0.19339

$$$$
4PP.pdb
  rDOCK(R)          3D
libRbt.so/2013.1/901 2013/11/27
 34 36  0  0  0  0  0  0  0  0999 V2000
    4.2289   13.5542   20.0128 C   0  0  0  0  0  0
    3.7255   12.4258   20.1013 O   0  0  0  0  0  0
    5.5733   13.6944   19.7974 O   0  0  0  0  0  0
    1.4274   17.6208   25.3870 N   0  0  0  0  0  0
    1.4334   16.6396   24.3762 C   0  0  0  0  0  0
    1.5935   17.0266   23.0296 C   0  0  0  0  0  0
    1.7452   18.3880   22.6948 C   0  0  0  0  0  0
    1.7405   19.3753   23.7199 C   0  0  0  0  0  0
    1.5820   18.9864   25.0577 C   0  0  0  0  0  0
    1.9090   18.7476   21.2613 N   0  0  0  0  0  0
    3.3186   14.7925   20.1378 C   0  0  0  0  0  0
    4.0451   16.0567   19.6716 C   0  0  0  0  0  0
    3.6670   17.1800   20.6321 C   0  0  0  0  0  0
    2.2125   17.5780   20.4083 C   0  0  0  0  0  0
    3.1257   15.4112   11.4294 N   0  0  0  0  0  0
    3.8947   16.2015   13.4316 N   0  0  0  0  0  0
    3.0271   15.4864   12.7437 C   0  0  0  0  0  0
   -0.4021   14.1416   17.9081 C   0  0  0  0  0  0
   -0.4196   14.2451   19.3262 C   0  0  0  0  0  0
    0.7913   14.4570   20.0351 C   0  0  0  0  0  0
    2.0280   14.5654   19.3341 C   0  0  0  0  0  0
    2.0525   14.4601   17.9050 C   0  0  0  0  0  0
    0.8356   14.2483   17.1875 C   0  0  0  0  0  0
   -0.0954   13.2975   13.5130 C   0  0  0  0  0  0
   -0.1391   13.3769   14.9356 C   0  0  0  0  0  0
    0.8477   14.1404   15.6376 C   0  0  0  0  0  0
    1.8625   14.8121   14.9069 C   0  0  0  0  0  0
    1.9083   14.7380   13.4929 C   0  0  0  0  0  0
    0.9300   13.9792   12.7910 C   0  0  0  0  0  0
    5.9515   14.5495   19.7370 H   0  0  0  0  0  0
    1.8245   19.6660   20.9169 H   0  0  0  0  0  0
    3.8449   15.8938   10.9613 H   0  0  0  0  0  0
    4.6144   16.6846   12.9648 H   0  0  0  0  0  0
    3.8230   16.2526   14.4121 H   0  0  0  0  0  0
  1  2  2  0  0  0
  1  3  1  0  0  0
  1 11  1  0  0  0
  3 30  1  0  0  0
  4  5  2  0  0  0
  4  9  1  0  0  0
  5  6  1  0  0  0
  6  7  2  0  0  0
  7  8  1  0  0  0
  7 10  1  0  0  0
  8  9  2  0  0  0
 10 14  1  0  0  0
 10 31  1  0  0  0
 11 12  1  0  0  0
 11 21  1  0  0  0
 12 13  1  0  0  0
 13 14  1  0  0  0
 15 17  2  0  0  0
 15 32  1  0  0  0
 16 17  1  0  0  0
 16 33  1  0  0  0
 16 34  1  0  0  0
 17 28  1  0  0  0
 18 19  2  0  0  0
 18 23  1  0  0  0
 19 20  1  0  0  0
 20 21  2  0  0  0
 21 22  1  0  0  0
 22 23  2  0  0  0
 23 26  1  0  0  0
 24 25  2  0  0  0
 24 29  1  0  0  0
 25 26  1  0  0  0
 26 27  2  0  0  0
 27 28  1  0  0  0
 28 29  2  0  0  0
M  END
>  <CHROM.0>
110.75600889,-142.22728323

>  <CHROM.1>
-179.57564768,-166.29562972,-13.84499684,-75.25272619,-139.91040393,113.52402071
-70.97991778,-174.85517121,178.08604740,-28.45584710,2.09637628,15.51635593
18.66246710,-1.51518588,1.29264970,-1.92643947

>  <FORMUL>
      4PP    C23 H24 N4 O2

>  <HET>
 4PP  C 500      29

>  <HETNAM>
     4PP (2S)-(3'-AMIDINO-3-BIPHENYL)-5-(4-PYRIDYLAMINO)PENTANOI
   2 4PP C ACID

>  <Name>
4PP.pdb

>  <RI>
0

>  <Rbt.Current_Directory>
/home/malgorzata/Desktop/rDOCK_IFD/Wyniki/7a_factor_Xa/IFD

>  <Rbt.Executable>
rbdock ($Id: //depot/dev/client3/rdock/2013.1/src/exe/rbdock.cxx#4 $)

>  <Rbt.Library>
libRbt.so (2013.1, Build901 2013/11/27)

>  <Rbt.Parameter_File>
/home/malgorzata/Desktop/rDock_2013.1_src/data/scripts/hard_docking.prm

>  <Rbt.Receptor>
cavity.prm

>  <SCORE>
-1.3307

>  <SCORE.INTER>
1.4205

>  <SCORE.INTER.CONST>
1

>  <SCORE.INTER.POLAR>
-1.08629

>  <SCORE.INTER.REPUL>
0

>  <SCORE.INTER.ROT>
9

>  <SCORE.INTER.VDW>
-9.28612

>  <SCORE.INTER.norm>
0.0489828

>  <SCORE.INTRA>
-2.88696

>  <SCORE.INTRA.DIHEDRAL>
-8.48998

>  <SCORE.INTRA.DIHEDRAL.0>
20.1331

>  <SCORE.INTRA.POLAR>
0

>  <SCORE.INTRA.POLAR.0>
0

>  <SCORE.INTRA.REPUL>
0

>  <SCORE.INTRA.REPUL.0>
0

>  <SCORE.INTRA.VDW>
1.35803

>  <SCORE.INTRA.VDW.0>
0.0644272

>  <SCORE.INTRA.norm>
-0.0995502

>  <SCORE.RESTR>
0.287005

>  <SCORE.RESTR.CAVITY>
0.287005

>  <SCORE.RESTR.norm>
0.00989671

>  <SCORE.SYSTEM>
-0.151252

>  <SCORE.SYSTEM.CONST>
0

>  <SCORE.SYSTEM.DIHEDRAL>
0.802385

>  <SCORE.SYSTEM.VDW>
-0.552445

>  <SCORE.SYSTEM.norm>
-0.0052156

>  <SCORE.heavy>
29

>  <SCORE.norm>
-0.0458863

$$$$
4PP.pdb
  rDOCK(R)          3D
libRbt.so/2013.1/901 2013/11/27
 34 36  0  0  0  0  0  0  0  0999 V2000
    4.8839   18.1388   19.1464 C   0  0  0  0  0  0
    4.4447   17.8204   20.2601 O   0  0  0  0  0  0
    5.8926   17.4149   18.5704 O   0  0  0  0  0  0
   -0.6684   24.5102   18.4473 N   0  0  0  0  0  0
    0.2864   25.5459   18.4336 C   0  0  0  0  0  0
    1.6529   25.2326   18.2810 C   0  0  0  0  0  0
    2.0632   23.8904   18.1445 C   0  0  0  0  0  0
    1.0945   22.8477   18.1570 C   0  0  0  0  0  0
   -0.2633   23.1634   18.3080 C   0  0  0  0  0  0
    3.5149   23.6092   17.9883 N   0  0  0  0  0  0
    4.2709   19.3520   18.4183 C   0  0  0  0  0  0
    5.3627   20.3052   17.9257 C   0  0  0  0  0  0
    4.9871   21.7083   18.3922 C   0  0  0  0  0  0
    3.7883   22.2098   17.5949 C   0  0  0  0  0  0
    0.4909   24.3279   15.4353 N   0  0  0  0  0  0
   -1.6295   24.5149   14.6025 N   0  0  0  0  0  0
   -0.6012   23.7671   14.9498 C   0  0  0  0  0  0
    1.8097   17.8982   15.0913 C   0  0  0  0  0  0
    2.8924   17.1181   15.5824 C   0  0  0  0  0  0
    3.6799   17.5998   16.6602 C   0  0  0  0  0  0
    3.3934   18.8638   17.2542 C   0  0  0  0  0  0
    2.3048   19.6556   16.7625 C   0  0  0  0  0  0
    1.5087   19.1737   15.6788 C   0  0  0  0  0  0
   -1.8844   20.2093   14.0395 C   0  0  0  0  0  0
   -0.8136   19.4022   14.5234 C   0  0  0  0  0  0
    0.3206   20.0189   15.1420 C   0  0  0  0  0  0
    0.3672   21.4322   15.2666 C   0  0  0  0  0  0
   -0.6958   22.2380   14.7893 C   0  0  0  0  0  0
   -1.8249   21.6292   14.1728 C   0  0  0  0  0  0
    6.2922   16.7107   19.0419 H   0  0  0  0  0  0
    4.2189   24.2825   18.1313 H   0  0  0  0  0  0
    0.5399   25.3062   15.5335 H   0  0  0  0  0  0
   -1.5819   25.4934   14.7001 H   0  0  0  0  0  0
   -2.4452   24.0950   14.2454 H   0  0  0  0  0  0
  1  2  2  0  0  0
  1  3  1  0  0  0
  1 11  1  0  0  0
  3 30  1  0  0  0
  4  5  2  0  0  0
  4  9  1  0  0  0
  5  6  1  0  0  0
  6  7  2  0  0  0
  7  8  1  0  0  0
  7 10  1  0  0  0
  8  9  2  0  0  0
 10 14  1  0  0  0
 10 31  1  0  0  0
 11 12  1  0  0  0
 11 21  1  0  0  0
 12 13  1  0  0  0
 13 14  1  0  0  0
 15 17  2  0  0  0
 15 32  1  0  0  0
 16 17  1  0  0  0
 16 33  1  0  0  0
 16 34  1  0  0  0
 17 28  1  0  0  0
 18 19  2  0  0  0
 18 23  1  0  0  0
 19 20  1  0  0  0
 20 21  2  0  0  0
 21 22  1  0  0  0
 22 23  2  0  0  0
 23 26  1  0  0  0
 24 25  2  0  0  0
 24 29  1  0  0  0
 25 26  1  0  0  0
 26 27  2  0  0  0
 27 28  1  0  0  0
 28 29  2  0  0  0
M  END
>  <CHROM.0>
-110.20964053,-150.12693757

>  <CHROM.1>
-4.04998923,130.33284710,-168.85603599,-138.22368244,-129.77588905,-25.97874819
-71.30502568,-175.43427048,4.82966629,27.52726226,1.80708971,21.16892583
16.87520394,-0.54976854,-0.66975018,0.40165345

>  <FORMUL>
      4PP    C23 H24 N4 O2

>  <HET>
 4PP  C 500      29

>  <HETNAM>
     4PP (2S)-(3'-AMIDINO-3-BIPHENYL)-5-(4-PYRIDYLAMINO)PENTANOI
   2 4PP C ACID

>  <Name>
4PP.pdb

>  <RI>
0

>  <Rbt.Current_Directory>
/home/malgorzata/Desktop/rDOCK_IFD/Wyniki/7a_factor_Xa/IFD

>  <Rbt.Executable>
rbdock ($Id: //depot/dev/client3/rdock/2013.1/src/exe/rbdock.cxx#4 $)

>  <Rbt.Library>
libRbt.so (2013.1, Build901 2013/11/27)

>  <Rbt.Parameter_File>
/home/malgorzata/Desktop/rDock_2013.1_src/data/scripts/hard_docking.prm

>  <Rbt.Receptor>
cavity.prm

>  <SCORE>
-5.09732

>  <SCORE.INTER>
1.88279

>  <SCORE.INTER.CONST>
1

>  <SCORE.INTER.POLAR>
-0.812494

>  <SCORE.INTER.REPUL>
0

>  <SCORE.INTER.ROT>
9

>  <SCORE.INTER.VDW>
-9.75474

>  <SCORE.INTER.norm>
0.0649237

>  <SCORE.INTRA>
-7.00882

>  <SCORE.INTRA.DIHEDRAL>
-8.99117

>  <SCORE.INTRA.DIHEDRAL.0>
20.1331

>  <SCORE.INTRA.POLAR>
0

>  <SCORE.INTRA.POLAR.0>
0

>  <SCORE.INTRA.REPUL>
0

>  <SCORE.INTRA.REPUL.0>
0

>  <SCORE.INTRA.VDW>
-2.51323

>  <SCORE.INTRA.VDW.0>
0.0644272

>  <SCORE.INTRA.norm>
-0.241683

>  <SCORE.RESTR>
0

>  <SCORE.RESTR.CAVITY>
0

>  <SCORE.RESTR.norm>
0

>  <SCORE.SYSTEM>
0.0287182

>  <SCORE.SYSTEM.CONST>
0

>  <SCORE.SYSTEM.DIHEDRAL>
0.800471

>  <SCORE.SYSTEM.VDW>
-0.371517

>  <SCORE.SYSTEM.norm>
0.000990283

>  <SCORE.heavy>
29

>  <SCORE.norm>
-0.17577

$$$$
4PP.pdb
  rDOCK(R)          3D
libRbt.so/2013.1/901 2013/11/27
 34 36  0  0  0  0  0  0  0  0999 V2000
    2.0807   18.4681   20.0260 C   0  0  0  0  0  0
    2.5042   19.6296   20.1039 O   0  0  0  0  0  0
    1.1710   18.0035   20.9370 O   0  0  0  0  0  0
    2.3492   11.2002   18.8664 N   0  0  0  0  0  0
    2.1300   12.0914   19.9352 C   0  0  0  0  0  0
    3.0866   13.0879   20.2196 C   0  0  0  0  0  0
    4.2573   13.1920   19.4405 C   0  0  0  0  0  0
    4.4731   12.2904   18.3605 C   0  0  0  0  0  0
    3.5192   11.3016   18.0804 C   0  0  0  0  0  0
    5.2377   14.2573   19.7796 N   0  0  0  0  0  0
    2.5846   17.5619   18.8847 C   0  0  0  0  0  0
    3.0470   16.2061   19.4242 C   0  0  0  0  0  0
    4.2950   16.4524   20.2663 C   0  0  0  0  0  0
    4.7717   15.1376   20.8731 C   0  0  0  0  0  0
    4.5445   16.2788   10.5784 N   0  0  0  0  0  0
    4.7737   15.3514   12.6549 N   0  0  0  0  0  0
    4.0596   16.0327   11.7813 C   0  0  0  0  0  0
   -0.6322   17.0755   15.9426 C   0  0  0  0  0  0
   -0.9301   17.1558   17.3307 C   0  0  0  0  0  0
    0.1201   17.3145   18.2718 C   0  0  0  0  0  0
    1.4748   17.3924   17.8344 C   0  0  0  0  0  0
    1.7818   17.3101   16.4369 C   0  0  0  0  0  0
    0.7274   17.1520   15.4863 C   0  0  0  0  0  0
    0.4025   17.3461   11.5966 C   0  0  0  0  0  0
    0.0763   17.4371   12.9813 C   0  0  0  0  0  0
    1.0464   17.0697   13.9679 C   0  0  0  0  0  0
    2.3268   16.6167   13.5551 C   0  0  0  0  0  0
    2.6562   16.5271   12.1802 C   0  0  0  0  0  0
    1.6945   16.8903   11.1959 C   0  0  0  0  0  0
    0.8473   18.5721   21.6077 H   0  0  0  0  0  0
    6.1042   14.3651   19.3250 H   0  0  0  0  0  0
    5.4427   15.9579   10.3346 H   0  0  0  0  0  0
    5.6721   15.0298   12.4124 H   0  0  0  0  0  0
    4.4088   15.1641   13.5499 H   0  0  0  0  0  0
  1  2  2  0  0  0
  1  3  1  0  0  0
  1 11  1  0  0  0
  3 30  1  0  0  0
  4  5  2  0  0  0
  4  9  1  0  0  0
  5  6  1  0  0  0
  6  7  2  0  0  0
  7  8  1  0  0  0
  7 10  1  0  0  0
  8  9  2  0  0  0
 10 14  1  0  0  0
 10 31  1  0  0  0
 11 12  1  0  0  0
 11 21  1  0  0  0
 12 13  1  0  0  0
 13 14  1  0  0  0
 15 17  2  0  0  0
 15 32  1  0  0  0
 16 17  1  0  0  0
 16 33  1  0  0  0
 16 34  1  0  0  0
 17 28  1  0  0  0
 18 19  2  0  0  0
 18 23  1  0  0  0
 19 20  1  0  0  0
 20 21  2  0  0  0
 21 22  1  0  0  0
 22 23  2  0  0  0
 23 26  1  0  0  0
 24 25  2  0  0  0
 24 29  1  0  0  0
 25 26  1  0  0  0
 26 27  2  0  0  0
 27 28  1  0  0  0
 28 29  2  0  0  0
M  END
>  <CHROM.0>
-115.00356589,-77.74583610

>  <CHROM.1>
1.79896007,130.59200823,-3.94143390,-103.08784855,-67.34505504,-36.11139255
177.93914780,66.69986395,-160.87566979,24.77985459,2.45217279,15.94009372
16.86325087,1.33317757,-1.01845339,1.60329823

>  <FORMUL>
      4PP    C23 H24 N4 O2

>  <HET>
 4PP  C 500      29

>  <HETNAM>
     4PP (2S)-(3'-AMIDINO-3-BIPHENYL)-5-(4-PYRIDYLAMINO)PENTANOI
   2 4PP C ACID

>  <Name>
4PP.pdb

>  <RI>
0

>  <Rbt.Current_Directory>
/home/malgorzata/Desktop/rDOCK_IFD/Wyniki/7a_factor_Xa/IFD

>  <Rbt.Executable>
rbdock ($Id: //depot/dev/client3/rdock/2013.1/src/exe/rbdock.cxx#4 $)

>  <Rbt.Library>
libRbt.so (2013.1, Build901 2013/11/27)

>  <Rbt.Parameter_File>
/home/malgorzata/Desktop/rDock_2013.1_src/data/scripts/hard_docking.prm

>  <Rbt.Receptor>
cavity.prm

>  <SCORE>
-5.1532

>  <SCORE.INTER>
0.814074

>  <SCORE.INTER.CONST>
1

>  <SCORE.INTER.POLAR>
-1.27554

>  <SCORE.INTER.REPUL>
0

>  <SCORE.INTER.ROT>
9

>  <SCORE.INTER.VDW>
-9.24908

>  <SCORE.INTER.norm>
0.0280715

>  <SCORE.INTRA>
-6.0038

>  <SCORE.INTRA.DIHEDRAL>
-13.37

>  <SCORE.INTRA.DIHEDRAL.0>
20.1331

>  <SCORE.INTRA.POLAR>
0

>  <SCORE.INTRA.POLAR.0>
0

>  <SCORE.INTRA.REPUL>
0

>  <SCORE.INTRA.REPUL.0>
0

>  <SCORE.INTRA.VDW>
0.681181

>  <SCORE.INTRA.VDW.0>
0.0644272

>  <SCORE.INTRA.norm>
-0.207028

>  <SCORE.RESTR>
0

>  <SCORE.RESTR.CAVITY>
0

>  <SCORE.RESTR.norm>
0

>  <SCORE.SYSTEM>
0.0365289

>  <SCORE.SYSTEM.CONST>
0

>  <SCORE.SYSTEM.DIHEDRAL>
0.798251

>  <SCORE.SYSTEM.VDW>
-0.362597

>  <SCORE.SYSTEM.norm>
0.00125962

>  <SCORE.heavy>
29

>  <SCORE.norm>
-0.177697

$$$$
4PP.pdb
  rDOCK(R)          3D
libRbt.so/2013.1/901 2013/11/27
 34 36  0  0  0  0  0  0  0  0999 V2000
   -1.6119   18.8461   15.1182 C   0  0  0  0  0  0
   -2.7101   18.4399   14.7136 O   0  0  0  0  0  0
   -1.4022   20.1840   15.3166 O   0  0  0  0  0  0
    4.7383   13.5301   11.1223 N   0  0  0  0  0  0
    5.1289   13.1831   12.4306 C   0  0  0  0  0  0
    4.8862   14.0798   13.4917 C   0  0  0  0  0  0
    4.2576   15.3179   13.2460 C   0  0  0  0  0  0
    3.8630   15.6629   11.9228 C   0  0  0  0  0  0
    4.1053   14.7683   10.8706 C   0  0  0  0  0  0
    4.0246   16.2309   14.3963 N   0  0  0  0  0  0
   -0.4937   17.8234   15.4038 C   0  0  0  0  0  0
    0.7636   18.1441   14.5917 C   0  0  0  0  0  0
    1.7426   16.9917   14.7934 C   0  0  0  0  0  0
    3.0567   17.3060   14.0874 C   0  0  0  0  0  0
    1.6830   20.0678   23.9829 N   0  0  0  0  0  0
    2.7292   22.0999   23.9575 N   0  0  0  0  0  0
    2.1785   21.0912   23.3121 C   0  0  0  0  0  0
    0.3395   17.6907   19.7083 C   0  0  0  0  0  0
   -0.2913   16.5927   19.0613 C   0  0  0  0  0  0
   -0.5539   16.6482   17.6679 C   0  0  0  0  0  0
   -0.1905   17.8003   16.9108 C   0  0  0  0  0  0
    0.4438   18.9110   17.5573 C   0  0  0  0  0  0
    0.7113   18.8585   18.9595 C   0  0  0  0  0  0
    2.5964   22.2190   19.6126 C   0  0  0  0  0  0
    1.9637   21.1412   18.9268 C   0  0  0  0  0  0
    1.4058   20.0527   19.6707 C   0  0  0  0  0  0
    1.4893   20.0582   21.0877 C   0  0  0  0  0  0
    2.1149   21.1284   21.7734 C   0  0  0  0  0  0
    2.6719   22.2121   21.0379 C   0  0  0  0  0  0
   -0.5754   20.4861   15.6377 H   0  0  0  0  0  0
    4.4672   16.1307   15.2699 H   0  0  0  0  0  0
    1.7292   20.0549   24.9662 H   0  0  0  0  0  0
    2.7760   22.0884   24.9408 H   0  0  0  0  0  0
    3.0937   22.8649   23.4563 H   0  0  0  0  0  0
  1  2  2  0  0  0
  1  3  1  0  0  0
  1 11  1  0  0  0
  3 30  1  0  0  0
  4  5  2  0  0  0
  4  9  1  0  0  0
  5  6  1  0  0  0
  6  7  2  0  0  0
  7  8  1  0  0  0
  7 10  1  0  0  0
  8  9  2  0  0  0
 10 14  1  0  0  0
 10 31  1  0  0  0
 11 12  1  0  0  0
 11 21  1  0  0  0
 12 13  1  0  0  0
 13 14  1  0  0  0
 15 17  2  0  0  0
 15 32  1  0  0  0
 16 17  1  0  0  0
 16 33  1  0  0  0
 16 34  1  0  0  0
 17 28  1  0  0  0
 18 19  2  0  0  0
 18 23  1  0  0  0
 19 20  1  0  0  0
 20 21  2  0  0  0
 21 22  1  0  0  0
 22 23  2  0  0  0
 23 26  1  0  0  0
 24 25  2  0  0  0
 24 29  1  0  0  0
 25 26  1  0  0  0
 26 27  2  0  0  0
 27 28  1  0  0  0
 28 29  2  0  0  0
M  END
>  <CHROM.0>
-91.03469595,124.48022747

>  <CHROM.1>
178.87611773,123.42000529,-164.60261120,106.18719688,-172.74466783,110.42272531
-175.88069937,175.12732937,1.34313679,170.69456000,1.68681044,18.19791629
17.04600513,1.39386035,0.31144308,-2.07807950

>  <FORMUL>
      4PP    C23 H24 N4 O2

>  <HET>
 4PP  C 500      29

>  <HETNAM>
     4PP (2S)-(3'-AMIDINO-3-BIPHENYL)-5-(4-PYRIDYLAMINO)PENTANOI
   2 4PP C ACID

>  <Name>
4PP.pdb

>  <RI>
0

>  <Rbt.Current_Directory>
/home/malgorzata/Desktop/rDOCK_IFD/Wyniki/7a_factor_Xa/IFD

>  <Rbt.Executable>
rbdock ($Id: //depot/dev/client3/rdock/2013.1/src/exe/rbdock.cxx#4 $)

>  <Rbt.Library>
libRbt.so (2013.1, Build901 2013/11/27)

>  <Rbt.Parameter_File>
/home/malgorzata/Desktop/rDock_2013.1_src/data/scripts/hard_docking.prm

>  <Rbt.Receptor>
cavity.prm

>  <SCORE>
-8.41068

>  <SCORE.INTER>
-0.97741

>  <SCORE.INTER.CONST>
1

>  <SCORE.INTER.POLAR>
-0.829156

>  <SCORE.INTER.REPUL>
0

>  <SCORE.INTER.ROT>
9

>  <SCORE.INTER.VDW>
-12.5583

>  <SCORE.INTER.norm>
-0.0337038

>  <SCORE.INTRA>
-8.09402

>  <SCORE.INTRA.DIHEDRAL>
-14.8183

>  <SCORE.INTRA.DIHEDRAL.0>
20.1331

>  <SCORE.INTRA.POLAR>
0

>  <SCORE.INTRA.POLAR.0>
0

>  <SCORE.INTRA.REPUL>
0

>  <SCORE.INTRA.REPUL.0>
0

>  <SCORE.INTRA.VDW>
-0.684867

>  <SCORE.INTRA.VDW.0>
0.0644272

>  <SCORE.INTRA.norm>
-0.279104

>  <SCORE.RESTR>
0.834056

>  <SCORE.RESTR.CAVITY>
0.834056

>  <SCORE.RESTR.norm>
0.0287606

>  <SCORE.SYSTEM>
-0.173311

>  <SCORE.SYSTEM.CONST>
0

>  <SCORE.SYSTEM.DIHEDRAL>
0.797531

>  <SCORE.SYSTEM.VDW>
-0.572076

>  <SCORE.SYSTEM.norm>
-0.00597623

>  <SCORE.heavy>
29

>  <SCORE.norm>
-0.290023

$$$$
