4PP.pdb
  rDOCK(R)          3D
libRbt.so/2013.1/901 2013/11/27
 34 36  0  0  0  0  0  0  0  0999 V2000
    7.8238    4.3690   16.1132 C   0  0  0  0  0  0
    7.0443    5.1526   15.5536 O   0  0  0  0  0  0
    8.6823    3.6035   15.3713 O   0  0  0  0  0  0
    8.5784   10.6312   20.2112 N   0  0  0  0  0  0
    7.8206   10.7020   19.0257 C   0  0  0  0  0  0
    6.8945    9.6810   18.7280 C   0  0  0  0  0  0
    6.7278    8.5936   19.6102 C   0  0  0  0  0  0
    7.4943    8.5277   20.8076 C   0  0  0  0  0  0
    8.4135    9.5453   21.1005 C   0  0  0  0  0  0
    5.7409    7.5404   19.2527 N   0  0  0  0  0  0
    7.8187    4.2787   17.6524 C   0  0  0  0  0  0
    6.5643    4.9336   18.2362 C   0  0  0  0  0  0
    6.9217    5.4410   19.6298 C   0  0  0  0  0  0
    5.8168    6.3593   20.1399 C   0  0  0  0  0  0
    9.2202   -5.1248   14.8548 N   0  0  0  0  0  0
   10.5354   -3.8878   16.2564 N   0  0  0  0  0  0
    9.4229   -4.0301   15.5642 C   0  0  0  0  0  0
    8.1475    0.1003   18.9456 C   0  0  0  0  0  0
    8.3558    1.1602   19.8704 C   0  0  0  0  0  0
    8.2452    2.5075   19.4390 C   0  0  0  0  0  0
    7.9275    2.8065   18.0817 C   0  0  0  0  0  0
    7.7182    1.7427   17.1444 C   0  0  0  0  0  0
    7.8272    0.3851   17.5749 C   0  0  0  0  0  0
    6.2631   -1.8902   14.8091 C   0  0  0  0  0  0
    6.4458   -0.8062   15.7167 C   0  0  0  0  0  0
    7.5946   -0.7772   16.5704 C   0  0  0  0  0  0
    8.5422   -1.8321   16.5041 C   0  0  0  0  0  0
    8.3659   -2.9100   15.6019 C   0  0  0  0  0  0
    7.2248   -2.9434   14.7520 C   0  0  0  0  0  0
    8.6847    3.6739   14.4370 H   0  0  0  0  0  0
    5.1049    7.6207   18.5055 H   0  0  0  0  0  0
    9.9028   -5.8340   14.8382 H   0  0  0  0  0  0
   11.2189   -4.5962   16.2408 H   0  0  0  0  0  0
   10.6830   -3.0731   16.7891 H   0  0  0  0  0  0
  1  2  2  0  0  0
  1  3  1  0  0  0
  1 11  1  0  0  0
  3 30  1  0  0  0
  4  5  2  0  0  0
  4  9  1  0  0  0
  5  6  1  0  0  0
  6  7  2  0  0  0
  7  8  1  0  0  0
  7 10  1  0  0  0
  8  9  2  0  0  0
 10 14  1  0  0  0
 10 31  1  0  0  0
 11 12  1  0  0  0
 11 21  1  0  0  0
 12 13  1  0  0  0
 13 14  1  0  0  0
 15 17  2  0  0  0
 15 32  1  0  0  0
 16 17  1  0  0  0
 16 33  1  0  0  0
 16 34  1  0  0  0
 17 28  1  0  0  0
 18 19  2  0  0  0
 18 23  1  0  0  0
 19 20  1  0  0  0
 20 21  2  0  0  0
 21 22  1  0  0  0
 22 23  2  0  0  0
 23 26  1  0  0  0
 24 25  2  0  0  0
 24 29  1  0  0  0
 25 26  1  0  0  0
 26 27  2  0  0  0
 27 28  1  0  0  0
 28 29  2  0  0  0
M  END
>  <CHROM.0>
-60.46485235,-65.65383829,-174.23261050,-59.90115094,137.16271407,-148.29015255
-116.11830796,-87.09085544

>  <CHROM.1>
0.29116963,15.02467415,170.79864499,-83.63589025,-151.72075156,165.88235992
167.88121732,-63.31293375,172.06013191,130.82760081,7.74417377,2.91668832
17.66417968,1.86344526,-1.22880005,0.59593978

>  <FORMUL>
      4PP    C23 H24 N4 O2

>  <HET>
 4PP  C 500      29

>  <HETNAM>
     4PP (2S)-(3'-AMIDINO-3-BIPHENYL)-5-(4-PYRIDYLAMINO)PENTANOI
   2 4PP C ACID

>  <Name>
4PP.pdb

>  <RI>
0

>  <Rbt.Current_Directory>
/home/malgorzata/Desktop/rDOCK_IFD/Wyniki/7a_factor_Xa/IFD

>  <Rbt.Executable>
rbdock ($Id: //depot/dev/client3/rdock/2013.1/src/exe/rbdock.cxx#4 $)

>  <Rbt.Library>
libRbt.so (2013.1, Build901 2013/11/27)

>  <Rbt.Parameter_File>
/home/malgorzata/Desktop/rDock_2013.1_src/data/scripts/hard_docking.prm

>  <Rbt.Receptor>
cavity.prm

>  <SCORE>
-17.5565

>  <SCORE.INTER>
-10.0384

>  <SCORE.INTER.CONST>
1

>  <SCORE.INTER.POLAR>
-1.97885

>  <SCORE.INTER.REPUL>
0

>  <SCORE.INTER.ROT>
9

>  <SCORE.INTER.VDW>
-17.7103

>  <SCORE.INTER.norm>
-0.34615

>  <SCORE.INTRA>
-3.96005

>  <SCORE.INTRA.DIHEDRAL>
-9.70653

>  <SCORE.INTRA.DIHEDRAL.0>
20.1331

>  <SCORE.INTRA.POLAR>
0

>  <SCORE.INTRA.POLAR.0>
0

>  <SCORE.INTRA.REPUL>
0

>  <SCORE.INTRA.REPUL.0>
0

>  <SCORE.INTRA.VDW>
0.89322

>  <SCORE.INTRA.VDW.0>
0.0644272

>  <SCORE.INTRA.norm>
-0.136553

>  <SCORE.RESTR>
0

>  <SCORE.RESTR.CAVITY>
0

>  <SCORE.RESTR.norm>
0

>  <SCORE.SYSTEM>
-3.55814

>  <SCORE.SYSTEM.CONST>
0

>  <SCORE.SYSTEM.DIHEDRAL>
7.57404

>  <SCORE.SYSTEM.POLAR>
-2.02765

>  <SCORE.SYSTEM.VDW>
-0.45115

>  <SCORE.SYSTEM.norm>
-0.122695

>  <SCORE.heavy>
29

>  <SCORE.norm>
-0.605398

$$$$
4PP.pdb
  rDOCK(R)          3D
libRbt.so/2013.1/901 2013/11/27
 34 36  0  0  0  0  0  0  0  0999 V2000
    3.5439    7.0126   23.4297 C   0  0  0  0  0  0
    4.2506    8.0150   23.6047 O   0  0  0  0  0  0
    2.1966    7.1456   23.2292 O   0  0  0  0  0  0
    4.4642    0.6451   19.8962 N   0  0  0  0  0  0
    3.1727    1.2012   19.8105 C   0  0  0  0  0  0
    2.5314    1.6586   20.9802 C   0  0  0  0  0  0
    3.1772    1.5591   22.2298 C   0  0  0  0  0  0
    4.4828    0.9983   22.3109 C   0  0  0  0  0  0
    5.1175    0.5455   21.1454 C   0  0  0  0  0  0
    2.4604    2.0529   23.4354 N   0  0  0  0  0  0
    4.2058    5.6199   23.4308 C   0  0  0  0  0  0
    3.4042    4.6323   24.2825 C   0  0  0  0  0  0
    4.2500    3.3720   24.4360 C   0  0  0  0  0  0
    3.3397    2.1630   24.6197 C   0  0  0  0  0  0
    8.5795    0.0724   16.2222 N   0  0  0  0  0  0
    7.1128    1.7414   15.6856 N   0  0  0  0  0  0
    7.8429    1.1074   16.5813 C   0  0  0  0  0  0
    4.5513    4.2209   19.2879 C   0  0  0  0  0  0
    3.4739    5.0633   19.6775 C   0  0  0  0  0  0
    3.3748    5.5097   21.0208 C   0  0  0  0  0  0
    4.3490    5.1174   21.9850 C   0  0  0  0  0  0
    5.4362    4.2671   21.5991 C   0  0  0  0  0  0
    5.5405    3.8167   20.2475 C   0  0  0  0  0  0
    8.8174    1.6879   20.3024 C   0  0  0  0  0  0
    7.7494    2.5271   20.7352 C   0  0  0  0  0  0
    6.7188    2.9011   19.8147 C   0  0  0  0  0  0
    6.7719    2.4310   18.4763 C   0  0  0  0  0  0
    7.8301    1.5948   18.0426 C   0  0  0  0  0  0
    8.8574    1.2214   18.9540 C   0  0  0  0  0  0
    1.6645    6.3849   23.1014 H   0  0  0  0  0  0
    1.5030    2.2821   23.4443 H   0  0  0  0  0  0
    8.5799   -0.2302   15.2854 H   0  0  0  0  0  0
    7.1123    1.4399   14.7484 H   0  0  0  0  0  0
    6.5680    2.5163   15.9537 H   0  0  0  0  0  0
  1  2  2  0  0  0
  1  3  1  0  0  0
  1 11  1  0  0  0
  3 30  1  0  0  0
  4  5  2  0  0  0
  4  9  1  0  0  0
  5  6  1  0  0  0
  6  7  2  0  0  0
  7  8  1  0  0  0
  7 10  1  0  0  0
  8  9  2  0  0  0
 10 14  1  0  0  0
 10 31  1  0  0  0
 11 12  1  0  0  0
 11 21  1  0  0  0
 12 13  1  0  0  0
 13 14  1  0  0  0
 15 17  2  0  0  0
 15 32  1  0  0  0
 16 17  1  0  0  0
 16 33  1  0  0  0
 16 34  1  0  0  0
 17 28  1  0  0  0
 18 19  2  0  0  0
 18 23  1  0  0  0
 19 20  1  0  0  0
 20 21  2  0  0  0
 21 22  1  0  0  0
 22 23  2  0  0  0
 23 26  1  0  0  0
 24 25  2  0  0  0
 24 29  1  0  0  0
 25 26  1  0  0  0
 26 27  2  0  0  0
 27 28  1  0  0  0
 28 29  2  0  0  0
M  END
>  <CHROM.0>
-60.46485235,-67.13300186,-163.97435998,-171.20584190,-84.39430451,42.82530704
-107.30296290,-92.90287895

>  <CHROM.1>
-179.69811524,134.11888343,-167.63525043,73.71847153,-169.90006079,-31.51929836
-151.64140024,59.33516898,-162.02886298,177.38466274,5.04694880,3.13924882
20.90320456,-2.55806591,-0.89712455,-3.06317564

>  <FORMUL>
      4PP    C23 H24 N4 O2

>  <HET>
 4PP  C 500      29

>  <HETNAM>
     4PP (2S)-(3'-AMIDINO-3-BIPHENYL)-5-(4-PYRIDYLAMINO)PENTANOI
   2 4PP C ACID

>  <Name>
4PP.pdb

>  <RI>
0

>  <Rbt.Current_Directory>
/home/malgorzata/Desktop/rDOCK_IFD/Wyniki/7a_factor_Xa/IFD

>  <Rbt.Executable>
rbdock ($Id: //depot/dev/client3/rdock/2013.1/src/exe/rbdock.cxx#4 $)

>  <Rbt.Library>
libRbt.so (2013.1, Build901 2013/11/27)

>  <Rbt.Parameter_File>
/home/malgorzata/Desktop/rDock_2013.1_src/data/scripts/hard_docking.prm

>  <Rbt.Receptor>
cavity.prm

>  <SCORE>
-14.4355

>  <SCORE.INTER>
-5.33052

>  <SCORE.INTER.CONST>
1

>  <SCORE.INTER.POLAR>
-1.30225

>  <SCORE.INTER.REPUL>
0

>  <SCORE.INTER.ROT>
9

>  <SCORE.INTER.VDW>
-15.3029

>  <SCORE.INTER.norm>
-0.183811

>  <SCORE.INTRA>
-9.29033

>  <SCORE.INTRA.DIHEDRAL>
-11.0039

>  <SCORE.INTRA.DIHEDRAL.0>
20.1331

>  <SCORE.INTRA.POLAR>
0

>  <SCORE.INTRA.POLAR.0>
0

>  <SCORE.INTRA.REPUL>
0

>  <SCORE.INTRA.REPUL.0>
0

>  <SCORE.INTRA.VDW>
-3.7884

>  <SCORE.INTRA.VDW.0>
0.0644272

>  <SCORE.INTRA.norm>
-0.320356

>  <SCORE.RESTR>
0

>  <SCORE.RESTR.CAVITY>
0

>  <SCORE.RESTR.norm>
0

>  <SCORE.SYSTEM>
0.185326

>  <SCORE.SYSTEM.CONST>
0

>  <SCORE.SYSTEM.DIHEDRAL>
11.6399

>  <SCORE.SYSTEM.POLAR>
-2.46863

>  <SCORE.SYSTEM.REPUL>
0.0428499

>  <SCORE.SYSTEM.VDW>
2.54446

>  <SCORE.SYSTEM.norm>
0.00639056

>  <SCORE.heavy>
29

>  <SCORE.norm>
-0.497777

$$$$
4PP.pdb
  rDOCK(R)          3D
libRbt.so/2013.1/901 2013/11/27
 34 36  0  0  0  0  0  0  0  0999 V2000
    1.3305    5.5786   18.8296 C   0  0  0  0  0  0
    0.5945    4.5865   18.7355 O   0  0  0  0  0  0
    0.9213    6.7894   18.3398 O   0  0  0  0  0  0
    0.2317    9.9281   22.7975 N   0  0  0  0  0  0
    0.9283    8.8674   23.4092 C   0  0  0  0  0  0
    2.2318    8.5475   22.9761 C   0  0  0  0  0  0
    2.8353    9.2833   21.9354 C   0  0  0  0  0  0
    2.1280   10.3552   21.3219 C   0  0  0  0  0  0
    0.8326   10.6708   21.7560 C   0  0  0  0  0  0
    4.2102    8.9077   21.5118 N   0  0  0  0  0  0
    2.7041    5.4301   19.5142 C   0  0  0  0  0  0
    2.8918    6.4897   20.6029 C   0  0  0  0  0  0
    4.3802    6.5456   20.9326 C   0  0  0  0  0  0
    4.6253    7.5830   22.0225 C   0  0  0  0  0  0
    6.5609    0.9973   15.7112 N   0  0  0  0  0  0
    8.2866   -0.4118   16.2220 N   0  0  0  0  0  0
    7.2034    0.2451   16.5855 C   0  0  0  0  0  0
    3.0353    1.3951   21.2020 C   0  0  0  0  0  0
    1.9809    2.2607   21.6033 C   0  0  0  0  0  0
    1.8847    3.5631   21.0484 C   0  0  0  0  0  0
    2.8409    4.0115   20.0906 C   0  0  0  0  0  0
    3.9070    3.1446   19.6834 C   0  0  0  0  0  0
    4.0065    1.8321   20.2385 C   0  0  0  0  0  0
    6.7684   -0.9327   20.2675 C   0  0  0  0  0  0
    5.7152   -0.0768   20.7039 C   0  0  0  0  0  0
    5.1529    0.8798   19.7993 C   0  0  0  0  0  0
    5.6521    0.9662   18.4733 C   0  0  0  0  0  0
    6.6969    0.1160   18.0346 C   0  0  0  0  0  0
    7.2597   -0.8357   18.9308 C   0  0  0  0  0  0
    0.0867    6.8676   17.9211 H   0  0  0  0  0  0
    4.7830    9.4796   20.9513 H   0  0  0  0  0  0
    6.8939    1.0723   14.7878 H   0  0  0  0  0  0
    8.6207   -0.3378   15.2989 H   0  0  0  0  0  0
    8.7618   -0.9765   16.8736 H   0  0  0  0  0  0
  1  2  2  0  0  0
  1  3  1  0  0  0
  1 11  1  0  0  0
  3 30  1  0  0  0
  4  5  2  0  0  0
  4  9  1  0  0  0
  5  6  1  0  0  0
  6  7  2  0  0  0
  7  8  1  0  0  0
  7 10  1  0  0  0
  8  9  2  0  0  0
 10 14  1  0  0  0
 10 31  1  0  0  0
 11 12  1  0  0  0
 11 21  1  0  0  0
 12 13  1  0  0  0
 13 14  1  0  0  0
 15 17  2  0  0  0
 15 32  1  0  0  0
 16 17  1  0  0  0
 16 33  1  0  0  0
 16 34  1  0  0  0
 17 28  1  0  0  0
 18 19  2  0  0  0
 18 23  1  0  0  0
 19 20  1  0  0  0
 20 21  2  0  0  0
 21 22  1  0  0  0
 22 23  2  0  0  0
 23 26  1  0  0  0
 24 25  2  0  0  0
 24 29  1  0  0  0
 25 26  1  0  0  0
 26 27  2  0  0  0
 27 28  1  0  0  0
 28 29  2  0  0  0
M  END
>  <CHROM.0>
-60.46485235,-65.54854068,-167.65155561,-59.16004108,57.11937836,50.90971031
161.59772330,141.06599408

>  <CHROM.1>
-0.83039065,-128.42044725,14.55708782,96.82942138,-163.56435779,-58.58453312
-179.64874729,-61.77472215,-9.30359996,-32.44201977,3.70180307,4.42174665
20.06200781,-2.28402903,-0.82366957,2.95625744

>  <FORMUL>
      4PP    C23 H24 N4 O2

>  <HET>
 4PP  C 500      29

>  <HETNAM>
     4PP (2S)-(3'-AMIDINO-3-BIPHENYL)-5-(4-PYRIDYLAMINO)PENTANOI
   2 4PP C ACID

>  <Name>
4PP.pdb

>  <RI>
0

>  <Rbt.Current_Directory>
/home/malgorzata/Desktop/rDOCK_IFD/Wyniki/7a_factor_Xa/IFD

>  <Rbt.Executable>
rbdock ($Id: //depot/dev/client3/rdock/2013.1/src/exe/rbdock.cxx#4 $)

>  <Rbt.Library>
libRbt.so (2013.1, Build901 2013/11/27)

>  <Rbt.Parameter_File>
/home/malgorzata/Desktop/rDock_2013.1_src/data/scripts/hard_docking.prm

>  <Rbt.Receptor>
cavity.prm

>  <SCORE>
-10.7498

>  <SCORE.INTER>
-0.534981

>  <SCORE.INTER.CONST>
1

>  <SCORE.INTER.POLAR>
-1.51098

>  <SCORE.INTER.REPUL>
0

>  <SCORE.INTER.ROT>
9

>  <SCORE.INTER.VDW>
-9.79764

>  <SCORE.INTER.norm>
-0.0184476

>  <SCORE.INTRA>
-5.73395

>  <SCORE.INTRA.DIHEDRAL>
-12.7267

>  <SCORE.INTRA.DIHEDRAL.0>
20.1331

>  <SCORE.INTRA.POLAR>
0

>  <SCORE.INTRA.POLAR.0>
0

>  <SCORE.INTRA.REPUL>
0

>  <SCORE.INTRA.REPUL.0>
0

>  <SCORE.INTRA.VDW>
0.62939

>  <SCORE.INTRA.VDW.0>
0.0644272

>  <SCORE.INTRA.norm>
-0.197722

>  <SCORE.RESTR>
0

>  <SCORE.RESTR.CAVITY>
0

>  <SCORE.RESTR.norm>
0

>  <SCORE.SYSTEM>
-4.48085

>  <SCORE.SYSTEM.CONST>
0

>  <SCORE.SYSTEM.DIHEDRAL>
9.30604

>  <SCORE.SYSTEM.POLAR>
-3.58268

>  <SCORE.SYSTEM.REPUL>
0.0403805

>  <SCORE.SYSTEM.VDW>
2.84535

>  <SCORE.SYSTEM.norm>
-0.154512

>  <SCORE.heavy>
29

>  <SCORE.norm>
-0.370682

$$$$
4PP.pdb
  rDOCK(R)          3D
libRbt.so/2013.1/901 2013/11/27
 34 36  0  0  0  0  0  0  0  0999 V2000
    8.6252    5.8953   18.8710 C   0  0  0  0  0  0
    8.7464    6.2864   17.7018 O   0  0  0  0  0  0
    9.5933    6.1780   19.7964 O   0  0  0  0  0  0
    5.5566   -2.2895   20.7181 N   0  0  0  0  0  0
    6.6658   -1.4260   20.6250 C   0  0  0  0  0  0
    6.5286   -0.1823   19.9744 C   0  0  0  0  0  0
    5.2892    0.1956   19.4181 C   0  0  0  0  0  0
    4.1711   -0.6795   19.5166 C   0  0  0  0  0  0
    4.3113   -1.9148   20.1651 C   0  0  0  0  0  0
    5.1937    1.5156   18.7403 N   0  0  0  0  0  0
    7.3665    5.0978   19.2675 C   0  0  0  0  0  0
    7.7259    3.9252   20.1835 C   0  0  0  0  0  0
    6.5477    2.9562   20.1669 C   0  0  0  0  0  0
    6.4562    2.2838   18.8017 C   0  0  0  0  0  0
    4.2914    3.1516   26.9918 N   0  0  0  0  0  0
    4.5055    2.3277   24.8705 N   0  0  0  0  0  0
    4.2725    3.3374   25.6849 C   0  0  0  0  0  0
    4.4802    7.8255   21.1299 C   0  0  0  0  0  0
    5.0205    8.1134   19.8465 C   0  0  0  0  0  0
    5.9525    7.2217   19.2549 C   0  0  0  0  0  0
    6.3529    6.0376   19.9405 C   0  0  0  0  0  0
    5.8134    5.7428   21.2351 C   0  0  0  0  0  0
    4.8739    6.6370   21.8334 C   0  0  0  0  0  0
    2.9623    6.9714   25.2256 C   0  0  0  0  0  0
    3.4931    7.2914   23.9419 C   0  0  0  0  0  0
    4.2755    6.3246   23.2329 C   0  0  0  0  0  0
    4.5153    5.0537   23.8180 C   0  0  0  0  0  0
    3.9876    4.7306   25.0924 C   0  0  0  0  0  0
    3.2102    5.6890   25.8013 C   0  0  0  0  0  0
   10.3494    6.6722   19.5473 H   0  0  0  0  0  0
    4.3774    1.8432   18.2979 H   0  0  0  0  0  0
    4.4746    2.2567   27.3591 H   0  0  0  0  0  0
    4.6889    1.4323   25.2364 H   0  0  0  0  0  0
    4.4961    2.4688   23.8962 H   0  0  0  0  0  0
  1  2  2  0  0  0
  1  3  1  0  0  0
  1 11  1  0  0  0
  3 30  1  0  0  0
  4  5  2  0  0  0
  4  9  1  0  0  0
  5  6  1  0  0  0
  6  7  2  0  0  0
  7  8  1  0  0  0
  7 10  1  0  0  0
  8  9  2  0  0  0
 10 14  1  0  0  0
 10 31  1  0  0  0
 11 12  1  0  0  0
 11 21  1  0  0  0
 12 13  1  0  0  0
 13 14  1  0  0  0
 15 17  2  0  0  0
 15 32  1  0  0  0
 16 17  1  0  0  0
 16 33  1  0  0  0
 16 34  1  0  0  0
 17 28  1  0  0  0
 18 19  2  0  0  0
 18 23  1  0  0  0
 19 20  1  0  0  0
 20 21  2  0  0  0
 21 22  1  0  0  0
 22 23  2  0  0  0
 23 26  1  0  0  0
 24 25  2  0  0  0
 24 29  1  0  0  0
 25 26  1  0  0  0
 26 27  2  0  0  0
 27 28  1  0  0  0
 28 29  2  0  0  0
M  END
>  <CHROM.0>
-60.46485235,-66.77265176,-162.86581039,-59.98444757,138.40979042,50.44788453
-119.33942481,125.50056395

>  <CHROM.1>
0.26025132,138.32878925,-2.26350788,-80.54981197,-162.37252743,53.98772142
69.65404529,-171.30053418,152.96720829,-9.80650411,5.60853294,3.91389897
21.41047341,-1.19996598,1.04228990,0.18993716

>  <FORMUL>
      4PP    C23 H24 N4 O2

>  <HET>
 4PP  C 500      29

>  <HETNAM>
     4PP (2S)-(3'-AMIDINO-3-BIPHENYL)-5-(4-PYRIDYLAMINO)PENTANOI
   2 4PP C ACID

>  <Name>
4PP.pdb

>  <RI>
0

>  <Rbt.Current_Directory>
/home/malgorzata/Desktop/rDOCK_IFD/Wyniki/7a_factor_Xa/IFD

>  <Rbt.Executable>
rbdock ($Id: //depot/dev/client3/rdock/2013.1/src/exe/rbdock.cxx#4 $)

>  <Rbt.Library>
libRbt.so (2013.1, Build901 2013/11/27)

>  <Rbt.Parameter_File>
/home/malgorzata/Desktop/rDock_2013.1_src/data/scripts/hard_docking.prm

>  <Rbt.Receptor>
cavity.prm

>  <SCORE>
-15.8842

>  <SCORE.INTER>
-10.3993

>  <SCORE.INTER.CONST>
1

>  <SCORE.INTER.POLAR>
-1.32674

>  <SCORE.INTER.REPUL>
0

>  <SCORE.INTER.ROT>
9

>  <SCORE.INTER.VDW>
-20.2884

>  <SCORE.INTER.norm>
-0.358597

>  <SCORE.INTRA>
-2.9857

>  <SCORE.INTRA.DIHEDRAL>
-11.4159

>  <SCORE.INTRA.DIHEDRAL.0>
20.1331

>  <SCORE.INTRA.POLAR>
0

>  <SCORE.INTRA.POLAR.0>
0

>  <SCORE.INTRA.REPUL>
0

>  <SCORE.INTRA.REPUL.0>
0

>  <SCORE.INTRA.VDW>
2.72223

>  <SCORE.INTRA.VDW.0>
0.0644272

>  <SCORE.INTRA.norm>
-0.102955

>  <SCORE.RESTR>
0

>  <SCORE.RESTR.CAVITY>
0

>  <SCORE.RESTR.norm>
0

>  <SCORE.SYSTEM>
-2.49914

>  <SCORE.SYSTEM.CONST>
0

>  <SCORE.SYSTEM.DIHEDRAL>
8.75864

>  <SCORE.SYSTEM.POLAR>
-3.02442

>  <SCORE.SYSTEM.REPUL>
0.040853

>  <SCORE.SYSTEM.VDW>
3.20031

>  <SCORE.SYSTEM.norm>
-0.0861774

>  <SCORE.heavy>
29

>  <SCORE.norm>
-0.54773

$$$$
4PP.pdb
  rDOCK(R)          3D
libRbt.so/2013.1/901 2013/11/27
 34 36  0  0  0  0  0  0  0  0999 V2000
    4.7488   -1.1263   19.4132 C   0  0  0  0  0  0
    4.3838   -1.0750   20.5959 O   0  0  0  0  0  0
    3.9454   -0.6315   18.4217 O   0  0  0  0  0  0
    9.0841   -5.1931   14.9588 N   0  0  0  0  0  0
    9.7426   -5.6557   16.1151 C   0  0  0  0  0  0
    9.0029   -5.8878   17.2931 C   0  0  0  0  0  0
    7.6120   -5.6569   17.3158 C   0  0  0  0  0  0
    6.9510   -5.1913   16.1444 C   0  0  0  0  0  0
    7.6899   -4.9627   14.9748 C   0  0  0  0  0  0
    6.8750   -5.9140   18.5814 N   0  0  0  0  0  0
    6.1216   -1.7440   19.0790 C   0  0  0  0  0  0
    5.9608   -3.0289   18.2627 C   0  0  0  0  0  0
    5.3779   -4.0892   19.1920 C   0  0  0  0  0  0
    5.4688   -5.4585   18.5281 C   0  0  0  0  0  0
    8.4177    6.5343   17.4352 N   0  0  0  0  0  0
    9.3767    7.4562   19.2940 N   0  0  0  0  0  0
    9.0198    6.3930   18.6016 C   0  0  0  0  0  0
    8.5632    1.1580   16.8752 C   0  0  0  0  0  0
    7.9736    0.0527   16.2024 C   0  0  0  0  0  0
    7.1849   -0.8780   16.9272 C   0  0  0  0  0  0
    6.9805   -0.7132   18.3285 C   0  0  0  0  0  0
    7.5736    0.3976   19.0128 C   0  0  0  0  0  0
    8.3670    1.3376   18.2865 C   0  0  0  0  0  0
   10.4144    3.5095   20.8092 C   0  0  0  0  0  0
    9.8446    2.3733   20.1638 C   0  0  0  0  0  0
    9.0088    2.5506   19.0152 C   0  0  0  0  0  0
    8.7553    3.8603   18.5299 C   0  0  0  0  0  0
    9.3215    4.9921   19.1667 C   0  0  0  0  0  0
   10.1521    4.8206   20.3096 C   0  0  0  0  0  0
    4.2233   -0.6752   17.5280 H   0  0  0  0  0  0
    7.2798   -6.3415   19.3705 H   0  0  0  0  0  0
    8.2301    7.4347   17.0840 H   0  0  0  0  0  0
    9.1897    8.3572   18.9440 H   0  0  0  0  0  0
    9.8303    7.3494   20.1613 H   0  0  0  0  0  0
  1  2  2  0  0  0
  1  3  1  0  0  0
  1 11  1  0  0  0
  3 30  1  0  0  0
  4  5  2  0  0  0
  4  9  1  0  0  0
  5  6  1  0  0  0
  6  7  2  0  0  0
  7  8  1  0  0  0
  7 10  1  0  0  0
  8  9  2  0  0  0
 10 14  1  0  0  0
 10 31  1  0  0  0
 11 12  1  0  0  0
 11 21  1  0  0  0
 12 13  1  0  0  0
 13 14  1  0  0  0
 15 17  2  0  0  0
 15 32  1  0  0  0
 16 17  1  0  0  0
 16 33  1  0  0  0
 16 34  1  0  0  0
 17 28  1  0  0  0
 18 19  2  0  0  0
 18 23  1  0  0  0
 19 20  1  0  0  0
 20 21  2  0  0  0
 21 22  1  0  0  0
 22 23  2  0  0  0
 23 26  1  0  0  0
 24 25  2  0  0  0
 24 29  1  0  0  0
 25 26  1  0  0  0
 26 27  2  0  0  0
 27 28  1  0  0  0
 28 29  2  0  0  0
M  END
>  <CHROM.0>
-60.46485235,6.58696895,64.49335038,-173.93614853,56.36328071,37.01357952
166.70300775,-102.09867204

>  <CHROM.1>
-179.74695823,114.53311800,172.08006033,-98.01709801,-70.26957111,-105.85792993
-168.11288768,74.80489749,-10.17673777,-125.79209104,7.65530988,-0.41119514
18.21672728,1.80545158,-0.54290878,-2.84200027

>  <FORMUL>
      4PP    C23 H24 N4 O2

>  <HET>
 4PP  C 500      29

>  <HETNAM>
     4PP (2S)-(3'-AMIDINO-3-BIPHENYL)-5-(4-PYRIDYLAMINO)PENTANOI
   2 4PP C ACID

>  <Name>
4PP.pdb

>  <RI>
0

>  <Rbt.Current_Directory>
/home/malgorzata/Desktop/rDOCK_IFD/Wyniki/7a_factor_Xa/IFD

>  <Rbt.Executable>
rbdock ($Id: //depot/dev/client3/rdock/2013.1/src/exe/rbdock.cxx#4 $)

>  <Rbt.Library>
libRbt.so (2013.1, Build901 2013/11/27)

>  <Rbt.Parameter_File>
/home/malgorzata/Desktop/rDock_2013.1_src/data/scripts/hard_docking.prm

>  <Rbt.Receptor>
cavity.prm

>  <SCORE>
-19.4978

>  <SCORE.INTER>
-12.5257

>  <SCORE.INTER.CONST>
1

>  <SCORE.INTER.POLAR>
-0.754598

>  <SCORE.INTER.REPUL>
0

>  <SCORE.INTER.ROT>
9

>  <SCORE.INTER.VDW>
-24.3601

>  <SCORE.INTER.norm>
-0.431922

>  <SCORE.INTRA>
-5.56246

>  <SCORE.INTRA.DIHEDRAL>
-10.6541

>  <SCORE.INTRA.DIHEDRAL.0>
20.1331

>  <SCORE.INTRA.POLAR>
0

>  <SCORE.INTRA.POLAR.0>
0

>  <SCORE.INTRA.REPUL>
0

>  <SCORE.INTRA.REPUL.0>
0

>  <SCORE.INTRA.VDW>
-0.23541

>  <SCORE.INTRA.VDW.0>
0.0644272

>  <SCORE.INTRA.norm>
-0.191809

>  <SCORE.RESTR>
0

>  <SCORE.RESTR.CAVITY>
0

>  <SCORE.RESTR.norm>
0

>  <SCORE.SYSTEM>
-1.40959

>  <SCORE.SYSTEM.CONST>
0

>  <SCORE.SYSTEM.DIHEDRAL>
4.89477

>  <SCORE.SYSTEM.POLAR>
-1.80132

>  <SCORE.SYSTEM.REPUL>
0.0428499

>  <SCORE.SYSTEM.VDW>
2.05327

>  <SCORE.SYSTEM.norm>
-0.0486065

>  <SCORE.heavy>
29

>  <SCORE.norm>
-0.672337

$$$$
4PP.pdb
  rDOCK(R)          3D
libRbt.so/2013.1/901 2013/11/27
 34 36  0  0  0  0  0  0  0  0999 V2000
    4.9985    1.7143   20.3223 C   0  0  0  0  0  0
    4.8640    0.4838   20.2713 O   0  0  0  0  0  0
    4.3919    2.5132   19.3911 O   0  0  0  0  0  0
    7.7729    0.1573   15.9728 N   0  0  0  0  0  0
    8.5961   -0.0207   17.1020 C   0  0  0  0  0  0
    8.8784    1.0783   17.9395 C   0  0  0  0  0  0
    8.3417    2.3494   17.6488 C   0  0  0  0  0  0
    7.5089    2.5237   16.5078 C   0  0  0  0  0  0
    7.2299    1.4283   15.6781 C   0  0  0  0  0  0
    8.6689    3.4782   18.5597 N   0  0  0  0  0  0
    5.8477    2.3289   21.4531 C   0  0  0  0  0  0
    6.9777    3.1907   20.8841 C   0  0  0  0  0  0
    8.1628    2.2684   20.6151 C   0  0  0  0  0  0
    9.2394    3.0278   19.8479 C   0  0  0  0  0  0
    0.4457   10.5355   23.8339 N   0  0  0  0  0  0
    0.1133    8.5075   24.8345 N   0  0  0  0  0  0
    0.7568    9.2591   23.9638 C   0  0  0  0  0  0
    3.2617    4.6036   24.1693 C   0  0  0  0  0  0
    3.6417    3.2698   24.4831 C   0  0  0  0  0  0
    4.4798    2.5456   23.5961 C   0  0  0  0  0  0
    4.9432    3.1467   22.3893 C   0  0  0  0  0  0
    4.5623    4.4901   22.0664 C   0  0  0  0  0  0
    3.7200    5.2230   22.9573 C   0  0  0  0  0  0
    3.5367    8.7528   21.2900 C   0  0  0  0  0  0
    3.9396    7.4138   21.5671 C   0  0  0  0  0  0
    3.3064    6.6829   22.6227 C   0  0  0  0  0  0
    2.2811    7.3017   23.3849 C   0  0  0  0  0  0
    1.8759    8.6313   23.1113 C   0  0  0  0  0  0
    2.5034    9.3621   22.0635 C   0  0  0  0  0  0
    4.5041    3.4428   19.4268 H   0  0  0  0  0  0
    8.5215    4.4241   18.3300 H   0  0  0  0  0  0
   -0.2713   10.9258   24.3841 H   0  0  0  0  0  0
   -0.6039    8.8965   25.3854 H   0  0  0  0  0  0
    0.3499    7.5570   24.9340 H   0  0  0  0  0  0
  1  2  2  0  0  0
  1  3  1  0  0  0
  1 11  1  0  0  0
  3 30  1  0  0  0
  4  5  2  0  0  0
  4  9  1  0  0  0
  5  6  1  0  0  0
  6  7  2  0  0  0
  7  8  1  0  0  0
  7 10  1  0  0  0
  8  9  2  0  0  0
 10 14  1  0  0  0
 10 31  1  0  0  0
 11 12  1  0  0  0
 11 21  1  0  0  0
 12 13  1  0  0  0
 13 14  1  0  0  0
 15 17  2  0  0  0
 15 32  1  0  0  0
 16 17  1  0  0  0
 16 33  1  0  0  0
 16 34  1  0  0  0
 17 28  1  0  0  0
 18 19  2  0  0  0
 18 23  1  0  0  0
 19 20  1  0  0  0
 20 21  2  0  0  0
 21 22  1  0  0  0
 22 23  2  0  0  0
 23 26  1  0  0  0
 24 25  2  0  0  0
 24 29  1  0  0  0
 25 26  1  0  0  0
 26 27  2  0  0  0
 27 28  1  0  0  0
 28 29  2  0  0  0
M  END
>  <CHROM.0>
-60.46485235,-67.03234990,-163.77997776,-176.12778838,55.62145180,-134.97220913
-110.40562316,-93.54652709

>  <CHROM.1>
-179.27931226,123.46374741,-14.85919050,-66.53187115,-86.81875879,97.82147111
171.24111557,-60.70901004,172.97070480,167.98315122,4.99173380,4.32908373
20.96362888,0.27484023,-0.94103536,2.59435944

>  <FORMUL>
      4PP    C23 H24 N4 O2

>  <HET>
 4PP  C 500      29

>  <HETNAM>
     4PP (2S)-(3'-AMIDINO-3-BIPHENYL)-5-(4-PYRIDYLAMINO)PENTANOI
   2 4PP C ACID

>  <Name>
4PP.pdb

>  <RI>
0

>  <Rbt.Current_Directory>
/home/malgorzata/Desktop/rDOCK_IFD/Wyniki/7a_factor_Xa/IFD

>  <Rbt.Executable>
rbdock ($Id: //depot/dev/client3/rdock/2013.1/src/exe/rbdock.cxx#4 $)

>  <Rbt.Library>
libRbt.so (2013.1, Build901 2013/11/27)

>  <Rbt.Parameter_File>
/home/malgorzata/Desktop/rDock_2013.1_src/data/scripts/hard_docking.prm

>  <Rbt.Receptor>
cavity.prm

>  <SCORE>
-19.5086

>  <SCORE.INTER>
-7.60774

>  <SCORE.INTER.CONST>
1

>  <SCORE.INTER.POLAR>
-0.650532

>  <SCORE.INTER.REPUL>
0.00365108

>  <SCORE.INTER.ROT>
9

>  <SCORE.INTER.VDW>
-19.8142

>  <SCORE.INTER.norm>
-0.262336

>  <SCORE.INTRA>
-5.54845

>  <SCORE.INTRA.DIHEDRAL>
-12.5279

>  <SCORE.INTRA.DIHEDRAL.0>
20.1331

>  <SCORE.INTRA.POLAR>
0

>  <SCORE.INTRA.POLAR.0>
0

>  <SCORE.INTRA.REPUL>
0

>  <SCORE.INTRA.REPUL.0>
0

>  <SCORE.INTRA.VDW>
0.715482

>  <SCORE.INTRA.VDW.0>
0.0644272

>  <SCORE.INTRA.norm>
-0.191326

>  <SCORE.RESTR>
0

>  <SCORE.RESTR.CAVITY>
0

>  <SCORE.RESTR.norm>
0

>  <SCORE.SYSTEM>
-6.35241

>  <SCORE.SYSTEM.CONST>
0

>  <SCORE.SYSTEM.DIHEDRAL>
9.82052

>  <SCORE.SYSTEM.POLAR>
-2.96597

>  <SCORE.SYSTEM.VDW>
-1.17838

>  <SCORE.SYSTEM.norm>
-0.219048

>  <SCORE.heavy>
29

>  <SCORE.norm>
-0.67271

$$$$
4PP.pdb
  rDOCK(R)          3D
libRbt.so/2013.1/901 2013/11/27
 34 36  0  0  0  0  0  0  0  0999 V2000
    9.8053    3.0436   20.5934 C   0  0  0  0  0  0
    9.9357    2.1997   21.4909 O   0  0  0  0  0  0
   10.4758    4.2347   20.6646 O   0  0  0  0  0  0
    9.2243   -4.6397   14.7071 N   0  0  0  0  0  0
    8.6355   -3.7402   13.7966 C   0  0  0  0  0  0
    8.2716   -2.4483   14.2293 C   0  0  0  0  0  0
    8.4936   -2.0578   15.5660 C   0  0  0  0  0  0
    9.0906   -2.9695   16.4815 C   0  0  0  0  0  0
    9.4519   -4.2529   16.0472 C   0  0  0  0  0  0
    8.0915   -0.6863   15.9761 N   0  0  0  0  0  0
    8.8882    2.7271   19.3949 C   0  0  0  0  0  0
    8.7970    1.2176   19.1575 C   0  0  0  0  0  0
    8.3864    1.0091   17.7031 C   0  0  0  0  0  0
    8.1763   -0.4774   17.4379 C   0  0  0  0  0  0
    0.3641    4.4545   22.2171 N   0  0  0  0  0  0
   -0.2653    2.7883   23.6497 N   0  0  0  0  0  0
    0.6503    3.3552   22.8897 C   0  0  0  0  0  0
    4.9364    4.5193   20.0366 C   0  0  0  0  0  0
    5.8466    5.0933   19.1070 C   0  0  0  0  0  0
    7.1215    4.5026   18.9082 C   0  0  0  0  0  0
    7.4975    3.3362   19.6366 C   0  0  0  0  0  0
    6.5854    2.7540   20.5763 C   0  0  0  0  0  0
    5.3005    3.3446   20.7783 C   0  0  0  0  0  0
    3.7202    1.0501   23.5188 C   0  0  0  0  0  0
    4.6655    1.6012   22.6051 C   0  0  0  0  0  0
    4.2995    2.7184   21.7882 C   0  0  0  0  0  0
    2.9948    3.2668   21.8969 C   0  0  0  0  0  0
    2.0530    2.7240   22.8053 C   0  0  0  0  0  0
    2.4121    1.6126   23.6187 C   0  0  0  0  0  0
   10.3118    4.9034   20.0290 H   0  0  0  0  0  0
    7.7999    0.0084   15.3424 H   0  0  0  0  0  0
   -0.5358    4.8490   22.2787 H   0  0  0  0  0  0
   -1.1656    3.1817   23.7123 H   0  0  0  0  0  0
   -0.0489    1.9714   24.1547 H   0  0  0  0  0  0
  1  2  2  0  0  0
  1  3  1  0  0  0
  1 11  1  0  0  0
  3 30  1  0  0  0
  4  5  2  0  0  0
  4  9  1  0  0  0
  5  6  1  0  0  0
  6  7  2  0  0  0
  7  8  1  0  0  0
  7 10  1  0  0  0
  8  9  2  0  0  0
 10 14  1  0  0  0
 10 31  1  0  0  0
 11 12  1  0  0  0
 11 21  1  0  0  0
 12 13  1  0  0  0
 13 14  1  0  0  0
 15 17  2  0  0  0
 15 32  1  0  0  0
 16 17  1  0  0  0
 16 33  1  0  0  0
 16 34  1  0  0  0
 17 28  1  0  0  0
 18 19  2  0  0  0
 18 23  1  0  0  0
 19 20  1  0  0  0
 20 21  2  0  0  0
 21 22  1  0  0  0
 22 23  2  0  0  0
 23 26  1  0  0  0
 24 25  2  0  0  0
 24 29  1  0  0  0
 25 26  1  0  0  0
 26 27  2  0  0  0
 27 28  1  0  0  0
 28 29  2  0  0  0
M  END
>  <CHROM.0>
-60.46485235,-67.29368215,62.87196330,176.15770276,56.50655929,-41.22748808
148.24734829,-108.98862572

>  <CHROM.1>
-174.05913123,-26.97152781,170.82444398,154.20153985,-157.32039397,105.79417044
-175.71069351,-167.01213338,-5.93667850,-175.84983812,6.37359943,1.40471078
19.57042119,-0.87713512,0.33698673,0.61790496

>  <FORMUL>
      4PP    C23 H24 N4 O2

>  <HET>
 4PP  C 500      29

>  <HETNAM>
     4PP (2S)-(3'-AMIDINO-3-BIPHENYL)-5-(4-PYRIDYLAMINO)PENTANOI
   2 4PP C ACID

>  <Name>
4PP.pdb

>  <RI>
0

>  <Rbt.Current_Directory>
/home/malgorzata/Desktop/rDOCK_IFD/Wyniki/7a_factor_Xa/IFD

>  <Rbt.Executable>
rbdock ($Id: //depot/dev/client3/rdock/2013.1/src/exe/rbdock.cxx#4 $)

>  <Rbt.Library>
libRbt.so (2013.1, Build901 2013/11/27)

>  <Rbt.Parameter_File>
/home/malgorzata/Desktop/rDock_2013.1_src/data/scripts/hard_docking.prm

>  <Rbt.Receptor>
cavity.prm

>  <SCORE>
-18.163

>  <SCORE.INTER>
-8.62617

>  <SCORE.INTER.CONST>
1

>  <SCORE.INTER.POLAR>
-0.508599

>  <SCORE.INTER.REPUL>
0

>  <SCORE.INTER.ROT>
9

>  <SCORE.INTER.VDW>
-21.2969

>  <SCORE.INTER.norm>
-0.297454

>  <SCORE.INTRA>
-6.09836

>  <SCORE.INTRA.DIHEDRAL>
-12.4534

>  <SCORE.INTRA.DIHEDRAL.0>
20.1331

>  <SCORE.INTRA.POLAR>
0

>  <SCORE.INTRA.POLAR.0>
0

>  <SCORE.INTRA.REPUL>
0

>  <SCORE.INTRA.REPUL.0>
0

>  <SCORE.INTRA.VDW>
0.128329

>  <SCORE.INTRA.VDW.0>
0.0644272

>  <SCORE.INTRA.norm>
-0.210288

>  <SCORE.RESTR>
0

>  <SCORE.RESTR.CAVITY>
0

>  <SCORE.RESTR.norm>
0

>  <SCORE.SYSTEM>
-3.43844

>  <SCORE.SYSTEM.CONST>
0

>  <SCORE.SYSTEM.DIHEDRAL>
8.71088

>  <SCORE.SYSTEM.POLAR>
-2.52985

>  <SCORE.SYSTEM.REPUL>
0.0281519

>  <SCORE.SYSTEM.VDW>
0.666851

>  <SCORE.SYSTEM.norm>
-0.118567

>  <SCORE.heavy>
29

>  <SCORE.norm>
-0.626309

$$$$
4PP.pdb
  rDOCK(R)          3D
libRbt.so/2013.1/901 2013/11/27
 34 36  0  0  0  0  0  0  0  0999 V2000
    4.3980    2.3204   26.0262 C   0  0  0  0  0  0
    5.0282    2.9381   26.8956 O   0  0  0  0  0  0
    4.5544    0.9673   25.8920 O   0  0  0  0  0  0
   -0.6074    9.5505   26.4684 N   0  0  0  0  0  0
   -1.4150    8.5380   27.0225 C   0  0  0  0  0  0
   -1.1839    7.1917   26.6721 C   0  0  0  0  0  0
   -0.1516    6.8592   25.7709 C   0  0  0  0  0  0
    0.6629    7.8857   25.2153 C   0  0  0  0  0  0
    0.4305    9.2230   25.5669 C   0  0  0  0  0  0
    0.0527    5.4263   25.4301 N   0  0  0  0  0  0
    3.4307    3.0956   25.1091 C   0  0  0  0  0  0
    3.7116    4.5994   25.1617 C   0  0  0  0  0  0
    2.4676    5.2757   25.7296 C   0  0  0  0  0  0
    1.3279    5.1822   24.7214 C   0  0  0  0  0  0
    7.3390   -0.9924   18.2061 N   0  0  0  0  0  0
    9.1043    0.2202   17.4074 N   0  0  0  0  0  0
    8.0642    0.1107   18.2096 C   0  0  0  0  0  0
    3.6818    1.5424   21.0146 C   0  0  0  0  0  0
    2.4697    1.4418   21.7514 C   0  0  0  0  0  0
    2.4018    1.9495   23.0747 C   0  0  0  0  0  0
    3.5433    2.5597   23.6726 C   0  0  0  0  0  0
    4.7683    2.6624   22.9360 C   0  0  0  0  0  0
    4.8404    2.1539   21.6030 C   0  0  0  0  0  0
    8.2172    3.4793   20.1493 C   0  0  0  0  0  0
    7.0151    3.4083   20.9122 C   0  0  0  0  0  0
    6.1603    2.2664   20.7910 C   0  0  0  0  0  0
    6.5200    1.2138   19.9092 C   0  0  0  0  0  0
    7.7149    1.2790   19.1509 C   0  0  0  0  0  0
    8.5672    2.4128   19.2675 C   0  0  0  0  0  0
    5.1673    0.5105   26.4338 H   0  0  0  0  0  0
   -0.5918    4.7161   25.6524 H   0  0  0  0  0  0
    7.5718   -1.7326   17.6002 H   0  0  0  0  0  0
    9.3382   -0.5192   16.8010 H   0  0  0  0  0  0
    9.6473    1.0414   17.4147 H   0  0  0  0  0  0
  1  2  2  0  0  0
  1  3  1  0  0  0
  1 11  1  0  0  0
  3 30  1  0  0  0
  4  5  2  0  0  0
  4  9  1  0  0  0
  5  6  1  0  0  0
  6  7  2  0  0  0
  7  8  1  0  0  0
  7 10  1  0  0  0
  8  9  2  0  0  0
 10 14  1  0  0  0
 10 31  1  0  0  0
 11 12  1  0  0  0
 11 21  1  0  0  0
 12 13  1  0  0  0
 13 14  1  0  0  0
 15 17  2  0  0  0
 15 32  1  0  0  0
 16 17  1  0  0  0
 16 33  1  0  0  0
 16 34  1  0  0  0
 17 28  1  0  0  0
 18 19  2  0  0  0
 18 23  1  0  0  0
 19 20  1  0  0  0
 20 21  2  0  0  0
 21 22  1  0  0  0
 22 23  2  0  0  0
 23 26  1  0  0  0
 24 25  2  0  0  0
 24 29  1  0  0  0
 25 26  1  0  0  0
 26 27  2  0  0  0
 27 28  1  0  0  0
 28 29  2  0  0  0
M  END
>  <CHROM.0>
-60.46485235,170.64347787,66.68092109,-174.24422446,134.04787075,46.76534862
-84.47087218,125.97287964

>  <CHROM.1>
-2.65725284,16.72840287,-167.54599249,74.68508776,-117.10355203,117.02749572
-69.10284509,161.67082527,-6.80805960,143.64344773,3.91532863,3.58092315
23.13575736,-3.06970492,0.90100985,-0.82657069

>  <FORMUL>
      4PP    C23 H24 N4 O2

>  <HET>
 4PP  C 500      29

>  <HETNAM>
     4PP (2S)-(3'-AMIDINO-3-BIPHENYL)-5-(4-PYRIDYLAMINO)PENTANOI
   2 4PP C ACID

>  <Name>
4PP.pdb

>  <RI>
0

>  <Rbt.Current_Directory>
/home/malgorzata/Desktop/rDOCK_IFD/Wyniki/7a_factor_Xa/IFD

>  <Rbt.Executable>
rbdock ($Id: //depot/dev/client3/rdock/2013.1/src/exe/rbdock.cxx#4 $)

>  <Rbt.Library>
libRbt.so (2013.1, Build901 2013/11/27)

>  <Rbt.Parameter_File>
/home/malgorzata/Desktop/rDock_2013.1_src/data/scripts/hard_docking.prm

>  <Rbt.Receptor>
cavity.prm

>  <SCORE>
-16.381

>  <SCORE.INTER>
-14.4844

>  <SCORE.INTER.CONST>
1

>  <SCORE.INTER.POLAR>
-0.894316

>  <SCORE.INTER.REPUL>
0

>  <SCORE.INTER.ROT>
9

>  <SCORE.INTER.VDW>
-25.8438

>  <SCORE.INTER.norm>
-0.499463

>  <SCORE.INTRA>
-3.23802

>  <SCORE.INTRA.DIHEDRAL>
-6.85467

>  <SCORE.INTRA.DIHEDRAL.0>
20.1331

>  <SCORE.INTRA.POLAR>
0

>  <SCORE.INTRA.POLAR.0>
0

>  <SCORE.INTRA.REPUL>
0

>  <SCORE.INTRA.REPUL.0>
0

>  <SCORE.INTRA.VDW>
0.189309

>  <SCORE.INTRA.VDW.0>
0.0644272

>  <SCORE.INTRA.norm>
-0.111656

>  <SCORE.RESTR>
0

>  <SCORE.RESTR.CAVITY>
0

>  <SCORE.RESTR.norm>
0

>  <SCORE.SYSTEM>
1.3415

>  <SCORE.SYSTEM.CONST>
0

>  <SCORE.SYSTEM.DIHEDRAL>
4.22729

>  <SCORE.SYSTEM.POLAR>
-1.156

>  <SCORE.SYSTEM.REPUL>
0.0428499

>  <SCORE.SYSTEM.VDW>
2.944

>  <SCORE.SYSTEM.norm>
0.0462587

>  <SCORE.heavy>
29

>  <SCORE.norm>
-0.56486

$$$$
4PP.pdb
  rDOCK(R)          3D
libRbt.so/2013.1/901 2013/11/27
 34 36  0  0  0  0  0  0  0  0999 V2000
   -0.2795    9.8615   23.5201 C   0  0  0  0  0  0
   -1.2553    9.2784   24.0127 O   0  0  0  0  0  0
   -0.4270   11.1039   22.9651 O   0  0  0  0  0  0
   -1.9124    3.9295   23.9143 N   0  0  0  0  0  0
   -0.6150    3.9269   23.3653 C   0  0  0  0  0  0
    0.4466    4.5172   24.0819 C   0  0  0  0  0  0
    0.2121    5.1087   25.3403 C   0  0  0  0  0  0
   -1.1001    5.1070   25.8915 C   0  0  0  0  0  0
   -2.1527    4.5183   25.1763 C   0  0  0  0  0  0
    1.3623    5.7203   26.0572 N   0  0  0  0  0  0
    1.0996    9.1726   23.5522 C   0  0  0  0  0  0
    1.0237    7.8268   24.2778 C   0  0  0  0  0  0
    2.4291    7.4943   24.7692 C   0  0  0  0  0  0
    2.5001    6.0229   25.1618 C   0  0  0  0  0  0
    8.1850   10.6386   20.9560 N   0  0  0  0  0  0
    8.8120   11.9848   19.2185 N   0  0  0  0  0  0
    7.8695   11.3633   19.8986 C   0  0  0  0  0  0
    2.5501    8.6204   19.4497 C   0  0  0  0  0  0
    1.6047    7.7170   20.0084 C   0  0  0  0  0  0
    1.1428    7.9080   21.3364 C   0  0  0  0  0  0
    1.6222    9.0007   22.1167 C   0  0  0  0  0  0
    2.5765    9.9136   21.5600 C   0  0  0  0  0  0
    3.0429    9.7257   20.2230 C   0  0  0  0  0  0
    4.6435   12.5958   18.1079 C   0  0  0  0  0  0
    3.6721   11.7084   18.6567 C   0  0  0  0  0  0
    4.0712   10.7131   19.6051 C   0  0  0  0  0  0
    5.4345   10.6199   19.9895 C   0  0  0  0  0  0
    6.4027   11.5012   19.4485 C   0  0  0  0  0  0
    6.0106   12.4917   18.5046 C   0  0  0  0  0  0
    0.3173   11.5512   22.6131 H   0  0  0  0  0  0
    1.3661    5.9042   27.0244 H   0  0  0  0  0  0
    9.1258   10.5576   21.2344 H   0  0  0  0  0  0
    9.7532   11.9048   19.4957 H   0  0  0  0  0  0
    8.5748   12.5291   18.4332 H   0  0  0  0  0  0
  1  2  2  0  0  0
  1  3  1  0  0  0
  1 11  1  0  0  0
  3 30  1  0  0  0
  4  5  2  0  0  0
  4  9  1  0  0  0
  5  6  1  0  0  0
  6  7  2  0  0  0
  7  8  1  0  0  0
  7 10  1  0  0  0
  8  9  2  0  0  0
 10 14  1  0  0  0
 10 31  1  0  0  0
 11 12  1  0  0  0
 11 21  1  0  0  0
 12 13  1  0  0  0
 13 14  1  0  0  0
 15 17  2  0  0  0
 15 32  1  0  0  0
 16 17  1  0  0  0
 16 33  1  0  0  0
 16 34  1  0  0  0
 17 28  1  0  0  0
 18 19  2  0  0  0
 18 23  1  0  0  0
 19 20  1  0  0  0
 20 21  2  0  0  0
 21 22  1  0  0  0
 22 23  2  0  0  0
 23 26  1  0  0  0
 24 25  2  0  0  0
 24 29  1  0  0  0
 25 26  1  0  0  0
 26 27  2  0  0  0
 27 28  1  0  0  0
 28 29  2  0  0  0
M  END
>  <CHROM.0>
-60.46485235,3.07717285,64.15290964,-61.01107935,54.47515315,48.11228465
161.62450796,122.88836298

>  <CHROM.1>
178.44365664,-2.17823367,19.32614648,97.48195337,-157.14596825,-80.86382875
-164.91730072,-49.84941194,-13.76100681,75.99764656,2.37192430,8.63674428
22.16256463,2.27344990,-0.08661134,2.47798273

>  <FORMUL>
      4PP    C23 H24 N4 O2

>  <HET>
 4PP  C 500      29

>  <HETNAM>
     4PP (2S)-(3'-AMIDINO-3-BIPHENYL)-5-(4-PYRIDYLAMINO)PENTANOI
   2 4PP C ACID

>  <Name>
4PP.pdb

>  <RI>
0

>  <Rbt.Current_Directory>
/home/malgorzata/Desktop/rDOCK_IFD/Wyniki/7a_factor_Xa/IFD

>  <Rbt.Executable>
rbdock ($Id: //depot/dev/client3/rdock/2013.1/src/exe/rbdock.cxx#4 $)

>  <Rbt.Library>
libRbt.so (2013.1, Build901 2013/11/27)

>  <Rbt.Parameter_File>
/home/malgorzata/Desktop/rDock_2013.1_src/data/scripts/hard_docking.prm

>  <Rbt.Receptor>
cavity.prm

>  <SCORE>
-9.0662

>  <SCORE.INTER>
-5.07284

>  <SCORE.INTER.CONST>
1

>  <SCORE.INTER.POLAR>
-2.25777

>  <SCORE.INTER.REPUL>
0.0251348

>  <SCORE.INTER.ROT>
9

>  <SCORE.INTER.VDW>
-11.9221

>  <SCORE.INTER.norm>
-0.174925

>  <SCORE.INTRA>
-2.80286

>  <SCORE.INTRA.DIHEDRAL>
-6.64766

>  <SCORE.INTRA.DIHEDRAL.0>
20.1331

>  <SCORE.INTRA.POLAR>
0

>  <SCORE.INTRA.POLAR.0>
0

>  <SCORE.INTRA.REPUL>
0

>  <SCORE.INTRA.REPUL.0>
0

>  <SCORE.INTRA.VDW>
0.520974

>  <SCORE.INTRA.VDW.0>
0.0644272

>  <SCORE.INTRA.norm>
-0.0966502

>  <SCORE.RESTR>
1.58829

>  <SCORE.RESTR.CAVITY>
1.58829

>  <SCORE.RESTR.norm>
0.0547688

>  <SCORE.SYSTEM>
-2.7788

>  <SCORE.SYSTEM.CONST>
0

>  <SCORE.SYSTEM.DIHEDRAL>
4.48893

>  <SCORE.SYSTEM.POLAR>
-2.35839

>  <SCORE.SYSTEM.REPUL>
0.0428499

>  <SCORE.SYSTEM.VDW>
2.78099

>  <SCORE.SYSTEM.norm>
-0.0958208

>  <SCORE.heavy>
29

>  <SCORE.norm>
-0.312628

$$$$
4PP.pdb
  rDOCK(R)          3D
libRbt.so/2013.1/901 2013/11/27
 34 36  0  0  0  0  0  0  0  0999 V2000
    4.0640   -0.0945   16.7442 C   0  0  0  0  0  0
    4.2785   -1.2859   17.0072 O   0  0  0  0  0  0
    2.9825    0.5469   17.2849 O   0  0  0  0  0  0
   10.5969    3.9287   20.9272 N   0  0  0  0  0  0
   10.0917    2.6686   21.3032 C   0  0  0  0  0  0
    8.8884    2.2018   20.7348 C   0  0  0  0  0  0
    8.1927    2.9914   19.7962 C   0  0  0  0  0  0
    8.7083    4.2629   19.4181 C   0  0  0  0  0  0
    9.9055    4.7231   19.9848 C   0  0  0  0  0  0
    6.9274    2.4579   19.2258 N   0  0  0  0  0  0
    5.0369    0.6535   15.8106 C   0  0  0  0  0  0
    6.0828    1.4288   16.6157 C   0  0  0  0  0  0
    5.3501    2.5352   17.3683 C   0  0  0  0  0  0
    6.3475    3.3424   18.1918 C   0  0  0  0  0  0
   11.9926   -6.3091   13.4688 N   0  0  0  0  0  0
   10.5036   -5.5064   11.9316 N   0  0  0  0  0  0
   10.9680   -5.5342   13.1648 C   0  0  0  0  0  0
    6.8901   -2.1845   13.0265 C   0  0  0  0  0  0
    5.8070   -1.3645   12.6063 C   0  0  0  0  0  0
    5.2174   -0.4497   13.5169 C   0  0  0  0  0  0
    5.7034   -0.3478   14.8533 C   0  0  0  0  0  0
    6.7935   -1.1728   15.2835 C   0  0  0  0  0  0
    7.3908   -2.0939   14.3695 C   0  0  0  0  0  0
   10.1334   -3.8186   16.5550 C   0  0  0  0  0  0
    9.0387   -2.9875   16.1767 C   0  0  0  0  0  0
    8.5785   -2.9881   14.8212 C   0  0  0  0  0  0
    9.2196   -3.8187   13.8651 C   0  0  0  0  0  0
   10.3063   -4.6480   14.2371 C   0  0  0  0  0  0
   10.7678   -4.6499   15.5834 C   0  0  0  0  0  0
    2.4043    0.0864   17.8607 H   0  0  0  0  0  0
    6.5194    1.6070   19.5063 H   0  0  0  0  0  0
   12.4076   -6.8711   12.7751 H   0  0  0  0  0  0
   10.9176   -6.0679   11.2369 H   0  0  0  0  0  0
    9.7427   -4.9241   11.7051 H   0  0  0  0  0  0
  1  2  2  0  0  0
  1  3  1  0  0  0
  1 11  1  0  0  0
  3 30  1  0  0  0
  4  5  2  0  0  0
  4  9  1  0  0  0
  5  6  1  0  0  0
  6  7  2  0  0  0
  7  8  1  0  0  0
  7 10  1  0  0  0
  8  9  2  0  0  0
 10 14  1  0  0  0
 10 31  1  0  0  0
 11 12  1  0  0  0
 11 21  1  0  0  0
 12 13  1  0  0  0
 13 14  1  0  0  0
 15 17  2  0  0  0
 15 32  1  0  0  0
 16 17  1  0  0  0
 16 33  1  0  0  0
 16 34  1  0  0  0
 17 28  1  0  0  0
 18 19  2  0  0  0
 18 23  1  0  0  0
 19 20  1  0  0  0
 20 21  2  0  0  0
 21 22  1  0  0  0
 22 23  2  0  0  0
 23 26  1  0  0  0
 24 25  2  0  0  0
 24 29  1  0  0  0
 25 26  1  0  0  0
 26 27  2  0  0  0
 27 28  1  0  0  0
 28 29  2  0  0  0
M  END
>  <CHROM.0>
-60.46485235,-67.17440880,-165.97921175,-59.16870280,55.07452423,48.16450755
-117.02353912,-101.14577732

>  <CHROM.1>
0.39538813,-95.83518619,-176.22347789,161.87839556,-66.38695525,100.92199972
179.95219224,-64.54022014,179.22271699,-175.61593524,7.76895441,-0.59639882
16.35570329,1.79703808,-0.33105354,0.72525119

>  <FORMUL>
      4PP    C23 H24 N4 O2

>  <HET>
 4PP  C 500      29

>  <HETNAM>
     4PP (2S)-(3'-AMIDINO-3-BIPHENYL)-5-(4-PYRIDYLAMINO)PENTANOI
   2 4PP C ACID

>  <Name>
4PP.pdb

>  <RI>
0

>  <Rbt.Current_Directory>
/home/malgorzata/Desktop/rDOCK_IFD/Wyniki/7a_factor_Xa/IFD

>  <Rbt.Executable>
rbdock ($Id: //depot/dev/client3/rdock/2013.1/src/exe/rbdock.cxx#4 $)

>  <Rbt.Library>
libRbt.so (2013.1, Build901 2013/11/27)

>  <Rbt.Parameter_File>
/home/malgorzata/Desktop/rDock_2013.1_src/data/scripts/hard_docking.prm

>  <Rbt.Receptor>
cavity.prm

>  <SCORE>
-17.7511

>  <SCORE.INTER>
-5.92163

>  <SCORE.INTER.CONST>
1

>  <SCORE.INTER.POLAR>
0

>  <SCORE.INTER.REPUL>
0

>  <SCORE.INTER.ROT>
9

>  <SCORE.INTER.VDW>
-20.3216

>  <SCORE.INTER.norm>
-0.204194

>  <SCORE.INTRA>
-7.07146

>  <SCORE.INTRA.DIHEDRAL>
-15.3351

>  <SCORE.INTRA.DIHEDRAL.0>
20.1331

>  <SCORE.INTRA.POLAR>
0

>  <SCORE.INTRA.POLAR.0>
0

>  <SCORE.INTRA.REPUL>
0

>  <SCORE.INTRA.REPUL.0>
0

>  <SCORE.INTRA.VDW>
0.596072

>  <SCORE.INTRA.VDW.0>
0.0644272

>  <SCORE.INTRA.norm>
-0.243843

>  <SCORE.RESTR>
0.204785

>  <SCORE.RESTR.CAVITY>
0.204785

>  <SCORE.RESTR.norm>
0.00706155

>  <SCORE.SYSTEM>
-4.96284

>  <SCORE.SYSTEM.CONST>
0

>  <SCORE.SYSTEM.DIHEDRAL>
9.45064

>  <SCORE.SYSTEM.POLAR>
-3.63137

>  <SCORE.SYSTEM.REPUL>
0.0428499

>  <SCORE.SYSTEM.VDW>
2.44423

>  <SCORE.SYSTEM.norm>
-0.171132

>  <SCORE.heavy>
29

>  <SCORE.norm>
-0.612108

$$$$
