FLP.pdb
  rDOCK(R)          3D
libRbt.so/2013.1/901 2013/11/27
 19 20  0  0  0  0  0  0  0  0999 V2000
   24.1747   24.9603    9.2427 C   0  0  0  0  0  0
   24.3625   24.6738   10.6129 C   0  0  0  0  0  0
   24.5800   23.3631   11.0252 C   0  0  0  0  0  0
   24.6094   22.3446   10.0709 C   0  0  0  0  0  0
   24.4222   22.6383    8.7066 C   0  0  0  0  0  0
   24.2046   23.9499    8.2974 C   0  0  0  0  0  0
   24.7499   23.0322   12.4926 C   0  0  0  0  0  0
   23.6607   22.5834   13.2783 C   0  0  0  0  0  0
   23.8621   22.2599   14.6548 C   0  0  0  0  0  0
   25.1747   22.3957   15.2250 C   0  0  0  0  0  0
   26.2338   22.8308   14.4376 C   0  0  0  0  0  0
   26.0366   23.1519   13.0909 C   0  0  0  0  0  0
   25.4196   22.1628   16.7018 C   0  0  0  0  0  0
   24.7306   20.8814   17.1652 C   0  0  0  0  0  0
   24.8701   23.3664   17.4666 C   0  0  0  0  0  0
   23.7901   23.8244   17.1859 O   0  0  0  0  0  0
   25.5733   23.9336   18.4108 O   0  0  0  0  0  0
   27.0921   23.5976   12.3589 F   0  0  0  0  0  0
   25.2151   24.6515   18.8948 H   0  0  0  0  0  0
  1  2  2  0  0  0
  2  3  1  0  0  0
  3  7  1  0  0  0
  4  3  2  0  0  0
  5  4  1  0  0  0
  6  5  2  0  0  0
  6  1  1  0  0  0
  7  8  2  0  0  0
  7 12  1  0  0  0
  8  9  1  0  0  0
  9 10  2  0  0  0
 10 13  1  0  0  0
 11 10  1  0  0  0
 12 11  2  0  0  0
 13 14  1  0  0  0
 15 17  1  0  0  0
 15 13  1  0  0  0
 16 15  2  0  0  0
 17 19  1  0  0  0
 18 12  1  0  0  0
M  END
>  <CHROM.0>
-174.33501036,-139.83065409,-45.33161639,66.49353980,63.40323080,178.68700864
-60.37810297

>  <CHROM.1>
96.00800280,46.16416879,-177.79789836,44.51386034,24.90967232,23.12807895
13.48478193,-1.63456021,0.63313441,1.71164976

>  <FORMUL>
      FLP    C15 H13 F1 O2

>  <HET>
 FLP  A 701      18

>  <HETNAM>
     FLP FLURBIPROFEN

>  <Name>
FLP.pdb

>  <RI>
0

>  <Rbt.Current_Directory>
/home/malgorzata/Desktop/rDOCK_IFD/Wyniki/4_COX2/IFD

>  <Rbt.Executable>
rbdock ($Id: //depot/dev/client3/rdock/2013.1/src/exe/rbdock.cxx#4 $)

>  <Rbt.Library>
libRbt.so (2013.1, Build901 2013/11/27)

>  <Rbt.Parameter_File>
/home/malgorzata/Desktop/rDock_2013.1_src/data/scripts/dock.prm

>  <Rbt.Receptor>
cavity.prm

>  <SCORE>
-21.7185

>  <SCORE.INTER>
-12.5356

>  <SCORE.INTER.CONST>
1

>  <SCORE.INTER.POLAR>
-1.11355

>  <SCORE.INTER.REPUL>
0

>  <SCORE.INTER.ROT>
3

>  <SCORE.INTER.VDW>
-17.1495

>  <SCORE.INTER.norm>
-0.696422

>  <SCORE.INTRA>
-0.49597

>  <SCORE.INTRA.DIHEDRAL>
2.2831

>  <SCORE.INTRA.DIHEDRAL.0>
5.47211

>  <SCORE.INTRA.POLAR>
0

>  <SCORE.INTRA.POLAR.0>
0

>  <SCORE.INTRA.REPUL>
0

>  <SCORE.INTRA.REPUL.0>
0

>  <SCORE.INTRA.VDW>
-1.63752

>  <SCORE.INTRA.VDW.0>
0.722234

>  <SCORE.INTRA.norm>
-0.0275539

>  <SCORE.RESTR>
0

>  <SCORE.RESTR.CAVITY>
0

>  <SCORE.RESTR.norm>
0

>  <SCORE.SYSTEM>
-8.68697

>  <SCORE.SYSTEM.CONST>
0

>  <SCORE.SYSTEM.DIHEDRAL>
3.38829

>  <SCORE.SYSTEM.POLAR>
-2.56096

>  <SCORE.SYSTEM.REPUL>
0.174338

>  <SCORE.SYSTEM.VDW>
-2.54553

>  <SCORE.SYSTEM.norm>
-0.482609

>  <SCORE.heavy>
18

>  <SCORE.norm>
-1.20659

$$$$
FLP.pdb
  rDOCK(R)          3D
libRbt.so/2013.1/901 2013/11/27
 19 20  0  0  0  0  0  0  0  0999 V2000
   24.8111   24.4843   11.1762 C   0  0  0  0  0  0
   25.3314   24.0510   12.4157 C   0  0  0  0  0  0
   24.6665   23.0691   13.1432 C   0  0  0  0  0  0
   23.4873   22.5239   12.6324 C   0  0  0  0  0  0
   22.9754   22.9604   11.3955 C   0  0  0  0  0  0
   23.6423   23.9426   10.6705 C   0  0  0  0  0  0
   25.1906   22.6160   14.4892 C   0  0  0  0  0  0
   26.5739   22.6466   14.7902 C   0  0  0  0  0  0
   27.0309   22.2316   16.0782 C   0  0  0  0  0  0
   26.0745   21.7864   17.0547 C   0  0  0  0  0  0
   24.7200   21.7695   16.7447 C   0  0  0  0  0  0
   24.2720   22.1716   15.4825 C   0  0  0  0  0  0
   26.5158   21.2415   18.3976 C   0  0  0  0  0  0
   27.3002   22.2964   19.1742 C   0  0  0  0  0  0
   27.3878   20.0123   18.1443 C   0  0  0  0  0  0
   28.5844   20.0760   18.2829 O   0  0  0  0  0  0
   26.8548   18.8878   17.7453 O   0  0  0  0  0  0
   22.9414   22.1179   15.2082 F   0  0  0  0  0  0
   25.9270   18.8236   17.6310 H   0  0  0  0  0  0
  1  2  2  0  0  0
  2  3  1  0  0  0
  3  7  1  0  0  0
  4  3  2  0  0  0
  5  4  1  0  0  0
  6  5  2  0  0  0
  6  1  1  0  0  0
  7  8  2  0  0  0
  7 12  1  0  0  0
  8  9  1  0  0  0
  9 10  2  0  0  0
 10 13  1  0  0  0
 11 10  1  0  0  0
 12 11  2  0  0  0
 13 14  1  0  0  0
 15 17  1  0  0  0
 15 13  1  0  0  0
 16 15  2  0  0  0
 17 19  1  0  0  0
 18 12  1  0  0  0
M  END
>  <CHROM.0>
5.41733203,7.11782333,-45.66294489,-45.60542286,-56.03653375,178.70559120
-60.37810297

>  <CHROM.1>
-29.79493299,60.54635786,-1.43119872,105.25932150,25.47370163,22.08593941
15.27155555,-2.02982904,0.23204116,2.11648584

>  <FORMUL>
      FLP    C15 H13 F1 O2

>  <HET>
 FLP  A 701      18

>  <HETNAM>
     FLP FLURBIPROFEN

>  <Name>
FLP.pdb

>  <RI>
0

>  <Rbt.Current_Directory>
/home/malgorzata/Desktop/rDOCK_IFD/Wyniki/4_COX2/IFD

>  <Rbt.Executable>
rbdock ($Id: //depot/dev/client3/rdock/2013.1/src/exe/rbdock.cxx#4 $)

>  <Rbt.Library>
libRbt.so (2013.1, Build901 2013/11/27)

>  <Rbt.Parameter_File>
/home/malgorzata/Desktop/rDock_2013.1_src/data/scripts/dock.prm

>  <Rbt.Receptor>
cavity.prm

>  <SCORE>
-20.235

>  <SCORE.INTER>
-10.3037

>  <SCORE.INTER.CONST>
1

>  <SCORE.INTER.POLAR>
-0.342633

>  <SCORE.INTER.REPUL>
0

>  <SCORE.INTER.ROT>
3

>  <SCORE.INTER.VDW>
-17.5387

>  <SCORE.INTER.norm>
-0.572427

>  <SCORE.INTRA>
-0.991087

>  <SCORE.INTRA.DIHEDRAL>
-2.52998

>  <SCORE.INTRA.DIHEDRAL.0>
5.47211

>  <SCORE.INTRA.POLAR>
0

>  <SCORE.INTRA.POLAR.0>
0

>  <SCORE.INTRA.REPUL>
0

>  <SCORE.INTRA.REPUL.0>
0

>  <SCORE.INTRA.VDW>
0.2739

>  <SCORE.INTRA.VDW.0>
0.722234

>  <SCORE.INTRA.norm>
-0.0550604

>  <SCORE.RESTR>
0

>  <SCORE.RESTR.CAVITY>
0

>  <SCORE.RESTR.norm>
0

>  <SCORE.SYSTEM>
-8.94019

>  <SCORE.SYSTEM.CONST>
0

>  <SCORE.SYSTEM.DIHEDRAL>
1.53268

>  <SCORE.SYSTEM.POLAR>
-2.47457

>  <SCORE.SYSTEM.VDW>
-1.29299

>  <SCORE.SYSTEM.norm>
-0.496677

>  <SCORE.heavy>
18

>  <SCORE.norm>
-1.12416

$$$$
FLP.pdb
  rDOCK(R)          3D
libRbt.so/2013.1/901 2013/11/27
 19 20  0  0  0  0  0  0  0  0999 V2000
   23.2310   23.6604   11.0696 C   0  0  0  0  0  0
   23.2467   23.0498   12.3431 C   0  0  0  0  0  0
   24.4590   22.7194   12.9403 C   0  0  0  0  0  0
   25.6490   22.9988   12.2662 C   0  0  0  0  0  0
   25.6252   23.6085   10.9972 C   0  0  0  0  0  0
   24.4115   23.9375   10.4025 C   0  0  0  0  0  0
   24.4948   22.0341   14.2896 C   0  0  0  0  0  0
   25.3184   20.9059   14.5220 C   0  0  0  0  0  0
   25.3432   20.2974   15.8141 C   0  0  0  0  0  0
   24.5271   20.8423   16.8645 C   0  0  0  0  0  0
   23.7301   21.9542   16.6208 C   0  0  0  0  0  0
   23.7018   22.5480   15.3550 C   0  0  0  0  0  0
   24.4407   20.1741   18.2214 C   0  0  0  0  0  0
   25.6232   19.2317   18.4327 C   0  0  0  0  0  0
   23.1262   19.3969   18.2816 C   0  0  0  0  0  0
   23.0248   18.3290   17.7300 O   0  0  0  0  0  0
   22.0878   19.8908   18.9027 O   0  0  0  0  0  0
   22.8909   23.6196   15.1484 F   0  0  0  0  0  0
   21.2771   19.4209   18.9066 H   0  0  0  0  0  0
  1  2  2  0  0  0
  2  3  1  0  0  0
  3  7  1  0  0  0
  4  3  2  0  0  0
  5  4  1  0  0  0
  6  5  2  0  0  0
  6  1  1  0  0  0
  7  8  2  0  0  0
  7 12  1  0  0  0
  8  9  1  0  0  0
  9 10  2  0  0  0
 10 13  1  0  0  0
 11 10  1  0  0  0
 12 11  2  0  0  0
 13 14  1  0  0  0
 15 17  1  0  0  0
 15 13  1  0  0  0
 16 15  2  0  0  0
 17 19  1  0  0  0
 18 12  1  0  0  0
M  END
>  <CHROM.0>
11.60175774,-142.10218512,-46.16499030,66.12586477,63.09702435,4.36262995
-60.37810297

>  <CHROM.1>
133.00154576,19.12856215,177.71949188,78.05225778,24.09474074,21.58325577
15.12850792,1.46524514,0.44677269,-0.98513366

>  <FORMUL>
      FLP    C15 H13 F1 O2

>  <HET>
 FLP  A 701      18

>  <HETNAM>
     FLP FLURBIPROFEN

>  <Name>
FLP.pdb

>  <RI>
0

>  <Rbt.Current_Directory>
/home/malgorzata/Desktop/rDOCK_IFD/Wyniki/4_COX2/IFD

>  <Rbt.Executable>
rbdock ($Id: //depot/dev/client3/rdock/2013.1/src/exe/rbdock.cxx#4 $)

>  <Rbt.Library>
libRbt.so (2013.1, Build901 2013/11/27)

>  <Rbt.Parameter_File>
/home/malgorzata/Desktop/rDock_2013.1_src/data/scripts/dock.prm

>  <Rbt.Receptor>
cavity.prm

>  <SCORE>
-23.3472

>  <SCORE.INTER>
-15.266

>  <SCORE.INTER.CONST>
1

>  <SCORE.INTER.POLAR>
-1.16233

>  <SCORE.INTER.REPUL>
0

>  <SCORE.INTER.ROT>
3

>  <SCORE.INTER.VDW>
-19.7141

>  <SCORE.INTER.norm>
-0.84811

>  <SCORE.INTRA>
0.475577

>  <SCORE.INTRA.DIHEDRAL>
-0.00967474

>  <SCORE.INTRA.DIHEDRAL.0>
5.47211

>  <SCORE.INTRA.POLAR>
0

>  <SCORE.INTRA.POLAR.0>
0

>  <SCORE.INTRA.REPUL>
0

>  <SCORE.INTRA.REPUL.0>
0

>  <SCORE.INTRA.VDW>
0.480414

>  <SCORE.INTRA.VDW.0>
0.722234

>  <SCORE.INTRA.norm>
0.0264209

>  <SCORE.RESTR>
0

>  <SCORE.RESTR.CAVITY>
0

>  <SCORE.RESTR.norm>
0

>  <SCORE.SYSTEM>
-8.55679

>  <SCORE.SYSTEM.CONST>
0

>  <SCORE.SYSTEM.DIHEDRAL>
3.26074

>  <SCORE.SYSTEM.POLAR>
-2.53947

>  <SCORE.SYSTEM.REPUL>
0.175423

>  <SCORE.SYSTEM.VDW>
-2.43007

>  <SCORE.SYSTEM.norm>
-0.475377

>  <SCORE.heavy>
18

>  <SCORE.norm>
-1.29707

$$$$
FLP.pdb
  rDOCK(R)          3D
libRbt.so/2013.1/901 2013/11/27
 19 20  0  0  0  0  0  0  0  0999 V2000
   23.1480   23.5478   11.1057 C   0  0  0  0  0  0
   23.1611   22.8377   12.3265 C   0  0  0  0  0  0
   24.3710   22.5503   12.9502 C   0  0  0  0  0  0
   25.5613   22.9718   12.3550 C   0  0  0  0  0  0
   25.5400   23.6801   11.1383 C   0  0  0  0  0  0
   24.3287   23.9656   10.5168 C   0  0  0  0  0  0
   24.4070   21.7613   14.2416 C   0  0  0  0  0  0
   25.4943   20.9103   14.5557 C   0  0  0  0  0  0
   25.5050   20.1971   15.7933 C   0  0  0  0  0  0
   24.4056   20.3547   16.7060 C   0  0  0  0  0  0
   23.3500   21.1994   16.3847 C   0  0  0  0  0  0
   23.3367   21.8947   15.1714 C   0  0  0  0  0  0
   24.3205   19.5447   17.9833 C   0  0  0  0  0  0
   25.5819   19.7314   18.8231 C   0  0  0  0  0  0
   24.1520   18.0750   17.5995 C   0  0  0  0  0  0
   24.6408   17.6521   16.5811 O   0  0  0  0  0  0
   23.4523   17.2661   18.3505 O   0  0  0  0  0  0
   22.2748   22.6929   14.8817 F   0  0  0  0  0  0
   23.3698   16.3627   18.1159 H   0  0  0  0  0  0
  1  2  2  0  0  0
  2  3  1  0  0  0
  3  7  1  0  0  0
  4  3  2  0  0  0
  5  4  1  0  0  0
  6  5  2  0  0  0
  6  1  1  0  0  0
  7  8  2  0  0  0
  7 12  1  0  0  0
  8  9  1  0  0  0
  9 10  2  0  0  0
 10 13  1  0  0  0
 11 10  1  0  0  0
 12 11  2  0  0  0
 13 14  1  0  0  0
 15 17  1  0  0  0
 15 13  1  0  0  0
 16 15  2  0  0  0
 17 19  1  0  0  0
 18 12  1  0  0  0
M  END
>  <CHROM.0>
13.69879797,7.52471707,-46.09773592,-46.25271177,63.22218523,179.12653099
-60.37810297

>  <CHROM.1>
148.44301259,55.56927139,-178.72912791,31.14368999,24.23474211,21.07790701
14.95967290,1.59251327,0.37262512,-0.90670251

>  <FORMUL>
      FLP    C15 H13 F1 O2

>  <HET>
 FLP  A 701      18

>  <HETNAM>
     FLP FLURBIPROFEN

>  <Name>
FLP.pdb

>  <RI>
0

>  <Rbt.Current_Directory>
/home/malgorzata/Desktop/rDOCK_IFD/Wyniki/4_COX2/IFD

>  <Rbt.Executable>
rbdock ($Id: //depot/dev/client3/rdock/2013.1/src/exe/rbdock.cxx#4 $)

>  <Rbt.Library>
libRbt.so (2013.1, Build901 2013/11/27)

>  <Rbt.Parameter_File>
/home/malgorzata/Desktop/rDock_2013.1_src/data/scripts/dock.prm

>  <Rbt.Receptor>
cavity.prm

>  <SCORE>
-22.5299

>  <SCORE.INTER>
-13.0658

>  <SCORE.INTER.CONST>
1

>  <SCORE.INTER.POLAR>
-0.342633

>  <SCORE.INTER.REPUL>
0

>  <SCORE.INTER.ROT>
3

>  <SCORE.INTER.VDW>
-20.3009

>  <SCORE.INTER.norm>
-0.725879

>  <SCORE.INTRA>
-1.38601

>  <SCORE.INTRA.DIHEDRAL>
-1.74616

>  <SCORE.INTRA.DIHEDRAL.0>
5.47211

>  <SCORE.INTRA.POLAR>
0

>  <SCORE.INTRA.POLAR.0>
0

>  <SCORE.INTRA.REPUL>
0

>  <SCORE.INTRA.REPUL.0>
0

>  <SCORE.INTRA.VDW>
-0.512926

>  <SCORE.INTRA.VDW.0>
0.722234

>  <SCORE.INTRA.norm>
-0.0770005

>  <SCORE.RESTR>
0

>  <SCORE.RESTR.CAVITY>
0

>  <SCORE.RESTR.norm>
0

>  <SCORE.SYSTEM>
-8.07805

>  <SCORE.SYSTEM.CONST>
0

>  <SCORE.SYSTEM.DIHEDRAL>
1.69064

>  <SCORE.SYSTEM.POLAR>
-2.23456

>  <SCORE.SYSTEM.REPUL>
0.0120527

>  <SCORE.SYSTEM.VDW>
-1.38613

>  <SCORE.SYSTEM.norm>
-0.448781

>  <SCORE.heavy>
18

>  <SCORE.norm>
-1.25166

$$$$
FLP.pdb
  rDOCK(R)          3D
libRbt.so/2013.1/901 2013/11/27
 19 20  0  0  0  0  0  0  0  0999 V2000
   26.1959   23.1150   12.9974 C   0  0  0  0  0  0
   24.9902   22.8202   13.6713 C   0  0  0  0  0  0
   24.9793   22.7054   15.0577 C   0  0  0  0  0  0
   26.1691   22.8850   15.7655 C   0  0  0  0  0  0
   27.3669   23.1796   15.0865 C   0  0  0  0  0  0
   27.3747   23.2933   13.7001 C   0  0  0  0  0  0
   23.7038   22.3569   15.7948 C   0  0  0  0  0  0
   23.6885   21.3825   16.8220 C   0  0  0  0  0  0
   22.4710   21.0942   17.5110 C   0  0  0  0  0  0
   21.2730   21.8014   17.1489 C   0  0  0  0  0  0
   21.3076   22.7596   16.1432 C   0  0  0  0  0  0
   22.4982   23.0394   15.4651 C   0  0  0  0  0  0
   19.9375   21.4615   17.7782 C   0  0  0  0  0  0
   20.0400   21.4836   19.3015 C   0  0  0  0  0  0
   19.5285   20.0707   17.2945 C   0  0  0  0  0  0
   20.2751   19.4229   16.6033 O   0  0  0  0  0  0
   18.3560   19.5784   17.5959 O   0  0  0  0  0  0
   22.4872   23.9661   14.4703 F   0  0  0  0  0  0
   17.7625   20.0728   18.1263 H   0  0  0  0  0  0
  1  2  2  0  0  0
  2  3  1  0  0  0
  3  7  1  0  0  0
  4  3  2  0  0  0
  5  4  1  0  0  0
  6  5  2  0  0  0
  6  1  1  0  0  0
  7  8  2  0  0  0
  7 12  1  0  0  0
  8  9  1  0  0  0
  9 10  2  0  0  0
 10 13  1  0  0  0
 11 10  1  0  0  0
 12 11  2  0  0  0
 13 14  1  0  0  0
 15 17  1  0  0  0
 15 13  1  0  0  0
 16 15  2  0  0  0
 17 19  1  0  0  0
 18 12  1  0  0  0
M  END
>  <CHROM.0>
-174.22236548,8.58806234,-45.59087855,62.20900774,-56.46114613,-178.88930164
-60.37810297

>  <CHROM.1>
134.43229637,52.83888980,-1.09269258,4.33958625,22.79156545,21.99717104,16.03332388
0.58651133,-0.04507700,-0.98006863

>  <FORMUL>
      FLP    C15 H13 F1 O2

>  <HET>
 FLP  A 701      18

>  <HETNAM>
     FLP FLURBIPROFEN

>  <Name>
FLP.pdb

>  <RI>
0

>  <Rbt.Current_Directory>
/home/malgorzata/Desktop/rDOCK_IFD/Wyniki/4_COX2/IFD

>  <Rbt.Executable>
rbdock ($Id: //depot/dev/client3/rdock/2013.1/src/exe/rbdock.cxx#4 $)

>  <Rbt.Library>
libRbt.so (2013.1, Build901 2013/11/27)

>  <Rbt.Parameter_File>
/home/malgorzata/Desktop/rDock_2013.1_src/data/scripts/dock.prm

>  <Rbt.Receptor>
cavity.prm

>  <SCORE>
-24.7104

>  <SCORE.INTER>
-12.6833

>  <SCORE.INTER.CONST>
1

>  <SCORE.INTER.POLAR>
-0.824621

>  <SCORE.INTER.REPUL>
0

>  <SCORE.INTER.ROT>
3

>  <SCORE.INTER.VDW>
-18.2796

>  <SCORE.INTER.norm>
-0.704627

>  <SCORE.INTRA>
-1.50689

>  <SCORE.INTRA.DIHEDRAL>
-1.47212

>  <SCORE.INTRA.DIHEDRAL.0>
5.47211

>  <SCORE.INTRA.POLAR>
0

>  <SCORE.INTRA.POLAR.0>
0

>  <SCORE.INTRA.REPUL>
0

>  <SCORE.INTRA.REPUL.0>
0

>  <SCORE.INTRA.VDW>
-0.770832

>  <SCORE.INTRA.VDW.0>
0.722234

>  <SCORE.INTRA.norm>
-0.0837163

>  <SCORE.RESTR>
0

>  <SCORE.RESTR.CAVITY>
0

>  <SCORE.RESTR.norm>
0

>  <SCORE.SYSTEM>
-10.5202

>  <SCORE.SYSTEM.CONST>
0

>  <SCORE.SYSTEM.DIHEDRAL>
1.56962

>  <SCORE.SYSTEM.POLAR>
-2.77682

>  <SCORE.SYSTEM.REPUL>
0.185835

>  <SCORE.SYSTEM.VDW>
-2.793

>  <SCORE.SYSTEM.norm>
-0.584456

>  <SCORE.heavy>
18

>  <SCORE.norm>
-1.3728

$$$$
FLP.pdb
  rDOCK(R)          3D
libRbt.so/2013.1/901 2013/11/27
 19 20  0  0  0  0  0  0  0  0999 V2000
   27.1422   23.3541   14.5785 C   0  0  0  0  0  0
   26.7314   22.3879   15.5233 C   0  0  0  0  0  0
   25.8022   21.4166   15.1647 C   0  0  0  0  0  0
   25.2872   21.4126   13.8672 C   0  0  0  0  0  0
   25.7024   22.3786   12.9307 C   0  0  0  0  0  0
   26.6314   23.3488   13.2923 C   0  0  0  0  0  0
   25.3248   20.3936   16.1731 C   0  0  0  0  0  0
   24.9528   20.7706   17.4863 C   0  0  0  0  0  0
   24.4865   19.7814   18.4052 C   0  0  0  0  0  0
   24.4016   18.4106   17.9807 C   0  0  0  0  0  0
   24.7641   18.0594   16.6859 C   0  0  0  0  0  0
   25.2248   19.0265   15.7870 C   0  0  0  0  0  0
   24.0104   17.3103   18.9457 C   0  0  0  0  0  0
   23.2084   17.8797   20.1136 C   0  0  0  0  0  0
   25.2920   16.6512   19.4541 C   0  0  0  0  0  0
   25.2859   15.4959   19.8009 O   0  0  0  0  0  0
   26.4010   17.3359   19.5494 O   0  0  0  0  0  0
   25.5934   18.6406   14.5365 F   0  0  0  0  0  0
   26.4459   18.2055   19.2033 H   0  0  0  0  0  0
  1  2  2  0  0  0
  2  3  1  0  0  0
  3  7  1  0  0  0
  4  3  2  0  0  0
  5  4  1  0  0  0
  6  5  2  0  0  0
  6  1  1  0  0  0
  7  8  2  0  0  0
  7 12  1  0  0  0
  8  9  1  0  0  0
  9 10  2  0  0  0
 10 13  1  0  0  0
 11 10  1  0  0  0
 12 11  2  0  0  0
 13 14  1  0  0  0
 15 17  1  0  0  0
 15 13  1  0  0  0
 16 15  2  0  0  0
 17 19  1  0  0  0
 18 12  1  0  0  0
M  END
>  <CHROM.0>
-177.33260177,8.50308371,-45.66587754,-45.71174330,-60.66930096,12.59999358
-60.37810297

>  <CHROM.1>
45.38521265,23.48000346,-7.87528408,-151.88956095,25.35469181,19.55436263
16.73647118,0.03893775,1.38479896,0.74122805

>  <FORMUL>
      FLP    C15 H13 F1 O2

>  <HET>
 FLP  A 701      18

>  <HETNAM>
     FLP FLURBIPROFEN

>  <Name>
FLP.pdb

>  <RI>
0

>  <Rbt.Current_Directory>
/home/malgorzata/Desktop/rDOCK_IFD/Wyniki/4_COX2/IFD

>  <Rbt.Executable>
rbdock ($Id: //depot/dev/client3/rdock/2013.1/src/exe/rbdock.cxx#4 $)

>  <Rbt.Library>
libRbt.so (2013.1, Build901 2013/11/27)

>  <Rbt.Parameter_File>
/home/malgorzata/Desktop/rDock_2013.1_src/data/scripts/dock.prm

>  <Rbt.Receptor>
cavity.prm

>  <SCORE>
-23.6894

>  <SCORE.INTER>
-14.8149

>  <SCORE.INTER.CONST>
1

>  <SCORE.INTER.POLAR>
-0.978129

>  <SCORE.INTER.REPUL>
0

>  <SCORE.INTER.ROT>
3

>  <SCORE.INTER.VDW>
-19.8892

>  <SCORE.INTER.norm>
-0.823049

>  <SCORE.INTRA>
-0.0546316

>  <SCORE.INTRA.DIHEDRAL>
-0.163408

>  <SCORE.INTRA.DIHEDRAL.0>
5.47211

>  <SCORE.INTRA.POLAR>
0

>  <SCORE.INTRA.POLAR.0>
0

>  <SCORE.INTRA.REPUL>
0

>  <SCORE.INTRA.REPUL.0>
0

>  <SCORE.INTRA.VDW>
0.0270724

>  <SCORE.INTRA.VDW.0>
0.722234

>  <SCORE.INTRA.norm>
-0.00303509

>  <SCORE.RESTR>
0

>  <SCORE.RESTR.CAVITY>
0

>  <SCORE.RESTR.norm>
0

>  <SCORE.SYSTEM>
-8.81991

>  <SCORE.SYSTEM.CONST>
0

>  <SCORE.SYSTEM.DIHEDRAL>
1.65884

>  <SCORE.SYSTEM.POLAR>
-2.44963

>  <SCORE.SYSTEM.REPUL>
0.00125951

>  <SCORE.SYSTEM.VDW>
-1.32689

>  <SCORE.SYSTEM.norm>
-0.489995

>  <SCORE.heavy>
18

>  <SCORE.norm>
-1.31608

$$$$
FLP.pdb
  rDOCK(R)          3D
libRbt.so/2013.1/901 2013/11/27
 19 20  0  0  0  0  0  0  0  0999 V2000
   25.7827   18.1692   18.7911 C   0  0  0  0  0  0
   25.6882   19.1130   17.7445 C   0  0  0  0  0  0
   24.4393   19.5399   17.3047 C   0  0  0  0  0  0
   23.2913   19.0248   17.9094 C   0  0  0  0  0  0
   23.3938   18.0850   18.9528 C   0  0  0  0  0  0
   24.6440   17.6597   19.3903 C   0  0  0  0  0  0
   24.3173   20.5252   16.1620 C   0  0  0  0  0  0
   25.2462   20.5337   15.0933 C   0  0  0  0  0  0
   25.0880   21.4636   14.0206 C   0  0  0  0  0  0
   23.9823   22.3819   14.0425 C   0  0  0  0  0  0
   23.0762   22.3550   15.0957 C   0  0  0  0  0  0
   23.2327   21.4479   16.1484 C   0  0  0  0  0  0
   23.8274   23.4531   12.9825 C   0  0  0  0  0  0
   23.3496   22.8424   11.6672 C   0  0  0  0  0  0
   25.1855   24.1274   12.7914 C   0  0  0  0  0  0
   25.3352   25.2879   13.0843 O   0  0  0  0  0  0
   26.1913   23.4675   12.2809 O   0  0  0  0  0  0
   22.3395   21.4682   17.1733 F   0  0  0  0  0  0
   27.0030   23.9052   12.1150 H   0  0  0  0  0  0
  1  2  2  0  0  0
  2  3  1  0  0  0
  3  7  1  0  0  0
  4  3  2  0  0  0
  5  4  1  0  0  0
  6  5  2  0  0  0
  6  1  1  0  0  0
  7  8  2  0  0  0
  7 12  1  0  0  0
  8  9  1  0  0  0
  9 10  2  0  0  0
 10 13  1  0  0  0
 11 10  1  0  0  0
 12 11  2  0  0  0
 13 14  1  0  0  0
 15 17  1  0  0  0
 15 13  1  0  0  0
 16 15  2  0  0  0
 17 19  1  0  0  0
 18 12  1  0  0  0
M  END
>  <CHROM.0>
49.45199315,10.52124507,-45.39763859,63.56591717,-59.50574114,179.12602272
-60.37810297

>  <CHROM.1>
33.16084548,74.71217899,175.94572689,-114.60544819,24.34630989,21.26560094
15.51806521,-1.63130876,0.26252373,-0.83038250

>  <FORMUL>
      FLP    C15 H13 F1 O2

>  <HET>
 FLP  A 701      18

>  <HETNAM>
     FLP FLURBIPROFEN

>  <Name>
FLP.pdb

>  <RI>
0

>  <Rbt.Current_Directory>
/home/malgorzata/Desktop/rDOCK_IFD/Wyniki/4_COX2/IFD

>  <Rbt.Executable>
rbdock ($Id: //depot/dev/client3/rdock/2013.1/src/exe/rbdock.cxx#4 $)

>  <Rbt.Library>
libRbt.so (2013.1, Build901 2013/11/27)

>  <Rbt.Parameter_File>
/home/malgorzata/Desktop/rDock_2013.1_src/data/scripts/dock.prm

>  <Rbt.Receptor>
cavity.prm

>  <SCORE>
-24.2348

>  <SCORE.INTER>
-12.6266

>  <SCORE.INTER.CONST>
1

>  <SCORE.INTER.POLAR>
-0.495119

>  <SCORE.INTER.REPUL>
0

>  <SCORE.INTER.ROT>
3

>  <SCORE.INTER.VDW>
-19.3432

>  <SCORE.INTER.norm>
-0.70148

>  <SCORE.INTRA>
-2.2329

>  <SCORE.INTRA.DIHEDRAL>
-2.4504

>  <SCORE.INTRA.DIHEDRAL.0>
5.47211

>  <SCORE.INTRA.POLAR>
0

>  <SCORE.INTRA.POLAR.0>
0

>  <SCORE.INTRA.REPUL>
0

>  <SCORE.INTRA.REPUL.0>
0

>  <SCORE.INTRA.VDW>
-1.0077

>  <SCORE.INTRA.VDW.0>
0.722234

>  <SCORE.INTRA.norm>
-0.12405

>  <SCORE.RESTR>
0

>  <SCORE.RESTR.CAVITY>
0

>  <SCORE.RESTR.norm>
0

>  <SCORE.SYSTEM>
-9.37531

>  <SCORE.SYSTEM.CONST>
0

>  <SCORE.SYSTEM.DIHEDRAL>
4.32222

>  <SCORE.SYSTEM.POLAR>
-2.76541

>  <SCORE.SYSTEM.REPUL>
0.182468

>  <SCORE.SYSTEM.VDW>
-3.04638

>  <SCORE.SYSTEM.norm>
-0.520851

>  <SCORE.heavy>
18

>  <SCORE.norm>
-1.34638

$$$$
FLP.pdb
  rDOCK(R)          3D
libRbt.so/2013.1/901 2013/11/27
 19 20  0  0  0  0  0  0  0  0999 V2000
   21.3676   19.4318   21.9659 C   0  0  0  0  0  0
   21.8278   19.9831   20.7497 C   0  0  0  0  0  0
   22.6344   19.2270   19.9052 C   0  0  0  0  0  0
   22.9782   17.9259   20.2763 C   0  0  0  0  0  0
   22.5147   17.3829   21.4899 C   0  0  0  0  0  0
   21.7087   18.1416   22.3325 C   0  0  0  0  0  0
   23.1647   19.8123   18.6138 C   0  0  0  0  0  0
   24.4146   19.4127   18.0817 C   0  0  0  0  0  0
   24.8742   19.9704   16.8496 C   0  0  0  0  0  0
   24.0565   20.9342   16.1649 C   0  0  0  0  0  0
   22.8294   21.3097   16.6979 C   0  0  0  0  0  0
   22.3806   20.7675   17.9063 C   0  0  0  0  0  0
   24.5428   21.6293   14.9097 C   0  0  0  0  0  0
   25.9534   22.1777   15.1112 C   0  0  0  0  0  0
   23.5720   22.7666   14.5942 C   0  0  0  0  0  0
   23.3944   23.6540   15.3917 O   0  0  0  0  0  0
   22.8997   22.7774   13.4735 O   0  0  0  0  0  0
   21.1857   21.1779   18.4086 F   0  0  0  0  0  0
   23.0135   22.0853   12.8523 H   0  0  0  0  0  0
  1  2  2  0  0  0
  2  3  1  0  0  0
  3  7  1  0  0  0
  4  3  2  0  0  0
  5  4  1  0  0  0
  6  5  2  0  0  0
  6  1  1  0  0  0
  7  8  2  0  0  0
  7 12  1  0  0  0
  8  9  1  0  0  0
  9 10  2  0  0  0
 10 13  1  0  0  0
 11 10  1  0  0  0
 12 11  2  0  0  0
 13 14  1  0  0  0
 15 17  1  0  0  0
 15 13  1  0  0  0
 16 15  2  0  0  0
 17 19  1  0  0  0
 18 12  1  0  0  0
M  END
>  <CHROM.0>
-174.00712689,7.67703593,-45.64029996,-46.56219831,-55.24570245,1.93981363
-60.37810297

>  <CHROM.1>
148.72032682,-48.44355275,-0.28615758,59.79258527,23.10282848,20.57150364
17.83202944,1.85388443,-0.51160573,2.24581145

>  <FORMUL>
      FLP    C15 H13 F1 O2

>  <HET>
 FLP  A 701      18

>  <HETNAM>
     FLP FLURBIPROFEN

>  <Name>
FLP.pdb

>  <RI>
0

>  <Rbt.Current_Directory>
/home/malgorzata/Desktop/rDOCK_IFD/Wyniki/4_COX2/IFD

>  <Rbt.Executable>
rbdock ($Id: //depot/dev/client3/rdock/2013.1/src/exe/rbdock.cxx#4 $)

>  <Rbt.Library>
libRbt.so (2013.1, Build901 2013/11/27)

>  <Rbt.Parameter_File>
/home/malgorzata/Desktop/rDock_2013.1_src/data/scripts/dock.prm

>  <Rbt.Receptor>
cavity.prm

>  <SCORE>
-22.0252

>  <SCORE.INTER>
-14.2731

>  <SCORE.INTER.CONST>
1

>  <SCORE.INTER.POLAR>
0

>  <SCORE.INTER.REPUL>
0

>  <SCORE.INTER.ROT>
3

>  <SCORE.INTER.VDW>
-22.6731

>  <SCORE.INTER.norm>
-0.792948

>  <SCORE.INTRA>
1.12995

>  <SCORE.INTRA.DIHEDRAL>
-1.06528

>  <SCORE.INTRA.DIHEDRAL.0>
5.47211

>  <SCORE.INTRA.POLAR>
0

>  <SCORE.INTRA.POLAR.0>
0

>  <SCORE.INTRA.REPUL>
0

>  <SCORE.INTRA.REPUL.0>
0

>  <SCORE.INTRA.VDW>
1.66259

>  <SCORE.INTRA.VDW.0>
0.722234

>  <SCORE.INTRA.norm>
0.0627752

>  <SCORE.RESTR>
0

>  <SCORE.RESTR.CAVITY>
0

>  <SCORE.RESTR.norm>
0

>  <SCORE.SYSTEM>
-8.8821

>  <SCORE.SYSTEM.CONST>
0

>  <SCORE.SYSTEM.DIHEDRAL>
1.58927

>  <SCORE.SYSTEM.POLAR>
-2.47484

>  <SCORE.SYSTEM.REPUL>
0.0182307

>  <SCORE.SYSTEM.VDW>
-1.35343

>  <SCORE.SYSTEM.norm>
-0.49345

>  <SCORE.heavy>
18

>  <SCORE.norm>
-1.22362

$$$$
FLP.pdb
  rDOCK(R)          3D
libRbt.so/2013.1/901 2013/11/27
 19 20  0  0  0  0  0  0  0  0999 V2000
   23.1781   23.0836   13.0453 C   0  0  0  0  0  0
   23.5487   22.4447   14.2493 C   0  0  0  0  0  0
   24.7473   21.7424   14.3227 C   0  0  0  0  0  0
   25.5705   21.6800   13.1970 C   0  0  0  0  0  0
   25.1946   22.3203   12.0006 C   0  0  0  0  0  0
   23.9953   23.0216   11.9301 C   0  0  0  0  0  0
   25.1454   21.0232   15.5938 C   0  0  0  0  0  0
   25.4421   19.6386   15.5957 C   0  0  0  0  0  0
   25.8352   18.9970   16.8098 C   0  0  0  0  0  0
   25.9239   19.7707   18.0181 C   0  0  0  0  0  0
   25.6359   21.1300   17.9967 C   0  0  0  0  0  0
   25.2468   21.7581   16.8094 C   0  0  0  0  0  0
   26.2374   19.1189   19.3492 C   0  0  0  0  0  0
   27.7439   18.9354   19.5162 C   0  0  0  0  0  0
   25.5308   17.7643   19.3890 C   0  0  0  0  0  0
   26.1619   16.7447   19.2575 O   0  0  0  0  0  0
   24.2341   17.6931   19.5344 O   0  0  0  0  0  0
   24.9495   23.0846   16.8331 F   0  0  0  0  0  0
   23.8122   16.8573   19.5729 H   0  0  0  0  0  0
  1  2  2  0  0  0
  2  3  1  0  0  0
  3  7  1  0  0  0
  4  3  2  0  0  0
  5  4  1  0  0  0
  6  5  2  0  0  0
  6  1  1  0  0  0
  7  8  2  0  0  0
  7 12  1  0  0  0
  8  9  1  0  0  0
  9 10  2  0  0  0
 10 13  1  0  0  0
 11 10  1  0  0  0
 12 11  2  0  0  0
 13 14  1  0  0  0
 15 17  1  0  0  0
 15 13  1  0  0  0
 16 15  2  0  0  0
 17 19  1  0  0  0
 18 12  1  0  0  0
M  END
>  <CHROM.0>
-0.29147465,6.48623310,-46.11476343,65.31876061,-56.59370121,177.66277532
-60.37810297

>  <CHROM.1>
123.79779894,83.19298706,-178.90789970,105.57140235,25.24508198,20.50776398
16.42033710,-2.98703427,1.35891072,-2.66631937

>  <FORMUL>
      FLP    C15 H13 F1 O2

>  <HET>
 FLP  A 701      18

>  <HETNAM>
     FLP FLURBIPROFEN

>  <Name>
FLP.pdb

>  <RI>
0

>  <Rbt.Current_Directory>
/home/malgorzata/Desktop/rDOCK_IFD/Wyniki/4_COX2/IFD

>  <Rbt.Executable>
rbdock ($Id: //depot/dev/client3/rdock/2013.1/src/exe/rbdock.cxx#4 $)

>  <Rbt.Library>
libRbt.so (2013.1, Build901 2013/11/27)

>  <Rbt.Parameter_File>
/home/malgorzata/Desktop/rDock_2013.1_src/data/scripts/dock.prm

>  <Rbt.Receptor>
cavity.prm

>  <SCORE>
-22.878

>  <SCORE.INTER>
-11.4736

>  <SCORE.INTER.CONST>
1

>  <SCORE.INTER.POLAR>
-0.496278

>  <SCORE.INTER.REPUL>
0

>  <SCORE.INTER.ROT>
3

>  <SCORE.INTER.VDW>
-18.1863

>  <SCORE.INTER.norm>
-0.637425

>  <SCORE.INTRA>
-0.888454

>  <SCORE.INTRA.DIHEDRAL>
-0.465044

>  <SCORE.INTRA.DIHEDRAL.0>
5.47211

>  <SCORE.INTRA.POLAR>
0

>  <SCORE.INTRA.POLAR.0>
0

>  <SCORE.INTRA.REPUL>
0

>  <SCORE.INTRA.REPUL.0>
0

>  <SCORE.INTRA.VDW>
-0.655932

>  <SCORE.INTRA.VDW.0>
0.722234

>  <SCORE.INTRA.norm>
-0.0493585

>  <SCORE.RESTR>
0

>  <SCORE.RESTR.CAVITY>
0

>  <SCORE.RESTR.norm>
0

>  <SCORE.SYSTEM>
-10.5159

>  <SCORE.SYSTEM.CONST>
0

>  <SCORE.SYSTEM.DIHEDRAL>
1.41397

>  <SCORE.SYSTEM.POLAR>
-2.76264

>  <SCORE.SYSTEM.REPUL>
0.177741

>  <SCORE.SYSTEM.VDW>
-2.71866

>  <SCORE.SYSTEM.norm>
-0.584218

>  <SCORE.heavy>
18

>  <SCORE.norm>
-1.271

$$$$
FLP.pdb
  rDOCK(R)          3D
libRbt.so/2013.1/901 2013/11/27
 19 20  0  0  0  0  0  0  0  0999 V2000
   23.0191   24.1653   10.6622 C   0  0  0  0  0  0
   23.5841   23.9251   11.9342 C   0  0  0  0  0  0
   24.9230   23.5634   12.0425 C   0  0  0  0  0  0
   25.6922   23.4429   10.8838 C   0  0  0  0  0  0
   25.1219   23.6850    9.6194 C   0  0  0  0  0  0
   23.7827   24.0462    9.5141 C   0  0  0  0  0  0
   25.5375   23.2693   13.3944 C   0  0  0  0  0  0
   26.9013   23.5427   13.6597 C   0  0  0  0  0  0
   27.4424   23.2722   14.9536 C   0  0  0  0  0  0
   26.5897   22.7233   15.9724 C   0  0  0  0  0  0
   25.2519   22.4677   15.6969 C   0  0  0  0  0  0
   24.7223   22.7282   14.4291 C   0  0  0  0  0  0
   27.1378   22.3249   17.3274 C   0  0  0  0  0  0
   26.7570   20.8838   17.6586 C   0  0  0  0  0  0
   26.5574   23.2795   18.3702 C   0  0  0  0  0  0
   27.0609   23.3663   19.4629 O   0  0  0  0  0  0
   25.4929   23.9895   18.1044 O   0  0  0  0  0  0
   23.4148   22.4420   14.1902 F   0  0  0  0  0  0
   25.1502   24.5788   18.7474 H   0  0  0  0  0  0
  1  2  2  0  0  0
  2  3  1  0  0  0
  3  7  1  0  0  0
  4  3  2  0  0  0
  5  4  1  0  0  0
  6  5  2  0  0  0
  6  1  1  0  0  0
  7  8  2  0  0  0
  7 12  1  0  0  0
  8  9  1  0  0  0
  9 10  2  0  0  0
 10 13  1  0  0  0
 11 10  1  0  0  0
 12 11  2  0  0  0
 13 14  1  0  0  0
 15 17  1  0  0  0
 15 13  1  0  0  0
 16 15  2  0  0  0
 17 19  1  0  0  0
 18 12  1  0  0  0
M  END
>  <CHROM.0>
-177.15902730,6.03794772,-45.68350053,64.64190391,-53.75554901,176.80493742
-60.37810297

>  <CHROM.1>
-148.43993349,-126.80878202,-179.34233239,-163.29629986,25.47283453,23.15576270
14.46700511,1.87850426,0.06795260,-1.46467497

>  <FORMUL>
      FLP    C15 H13 F1 O2

>  <HET>
 FLP  A 701      18

>  <HETNAM>
     FLP FLURBIPROFEN

>  <Name>
FLP.pdb

>  <RI>
0

>  <Rbt.Current_Directory>
/home/malgorzata/Desktop/rDOCK_IFD/Wyniki/4_COX2/IFD

>  <Rbt.Executable>
rbdock ($Id: //depot/dev/client3/rdock/2013.1/src/exe/rbdock.cxx#4 $)

>  <Rbt.Library>
libRbt.so (2013.1, Build901 2013/11/27)

>  <Rbt.Parameter_File>
/home/malgorzata/Desktop/rDock_2013.1_src/data/scripts/dock.prm

>  <Rbt.Receptor>
cavity.prm

>  <SCORE>
-25.446

>  <SCORE.INTER>
-14.3877

>  <SCORE.INTER.CONST>
1

>  <SCORE.INTER.POLAR>
-1.11355

>  <SCORE.INTER.REPUL>
0.00378525

>  <SCORE.INTER.ROT>
3

>  <SCORE.INTER.VDW>
-19.0206

>  <SCORE.INTER.norm>
-0.799317

>  <SCORE.INTRA>
-0.536722

>  <SCORE.INTRA.DIHEDRAL>
-1.28148

>  <SCORE.INTRA.DIHEDRAL.0>
5.47211

>  <SCORE.INTRA.POLAR>
0

>  <SCORE.INTRA.POLAR.0>
0

>  <SCORE.INTRA.REPUL>
0

>  <SCORE.INTRA.REPUL.0>
0

>  <SCORE.INTRA.VDW>
0.104019

>  <SCORE.INTRA.VDW.0>
0.722234

>  <SCORE.INTRA.norm>
-0.0298179

>  <SCORE.RESTR>
0

>  <SCORE.RESTR.CAVITY>
0

>  <SCORE.RESTR.norm>
0

>  <SCORE.SYSTEM>
-10.5215

>  <SCORE.SYSTEM.CONST>
0

>  <SCORE.SYSTEM.DIHEDRAL>
1.61948

>  <SCORE.SYSTEM.POLAR>
-2.79277

>  <SCORE.SYSTEM.REPUL>
0.179616

>  <SCORE.SYSTEM.VDW>
-2.73394

>  <SCORE.SYSTEM.norm>
-0.58453

>  <SCORE.heavy>
18

>  <SCORE.norm>
-1.41366

$$$$
