FLP.pdb
  rDOCK(R)          3D
libRbt.so/2013.1/901 2013/11/27
 19 20  0  0  0  0  0  0  0  0999 V2000
   19.5248   21.4556   18.7490 C   0  0  0  0  0  0
   20.7612   20.8445   18.4444 C   0  0  0  0  0  0
   21.6854   21.5078   17.6435 C   0  0  0  0  0  0
   21.3735   22.7760   17.1504 C   0  0  0  0  0  0
   20.1391   23.3790   17.4593 C   0  0  0  0  0  0
   19.2169   22.7131   18.2600 C   0  0  0  0  0  0
   23.0016   20.8551   17.2787 C   0  0  0  0  0  0
   23.7704   21.3094   16.1798 C   0  0  0  0  0  0
   25.0182   20.6835   15.8774 C   0  0  0  0  0  0
   25.4771   19.5959   16.6976 C   0  0  0  0  0  0
   24.7133   19.1675   17.7765 C   0  0  0  0  0  0
   23.4894   19.7767   18.0707 C   0  0  0  0  0  0
   26.7420   18.8338   16.3592 C   0  0  0  0  0  0
   27.9155   19.7937   16.1782 C   0  0  0  0  0  0
   26.4916   18.0534   15.0693 C   0  0  0  0  0  0
   26.6082   18.5952   13.9979 O   0  0  0  0  0  0
   26.1189   16.8015   15.1095 O   0  0  0  0  0  0
   22.7587   19.3137   19.1196 F   0  0  0  0  0  0
   25.9631   16.3333   14.3129 H   0  0  0  0  0  0
  1  2  2  0  0  0
  2  3  1  0  0  0
  3  7  1  0  0  0
  4  3  2  0  0  0
  5  4  1  0  0  0
  6  5  2  0  0  0
  6  1  1  0  0  0
  7  8  2  0  0  0
  7 12  1  0  0  0
  8  9  1  0  0  0
  9 10  2  0  0  0
 10 13  1  0  0  0
 11 10  1  0  0  0
 12 11  2  0  0  0
 13 14  1  0  0  0
 15 17  1  0  0  0
 15 13  1  0  0  0
 16 15  2  0  0  0
 17 19  1  0  0  0
 18 12  1  0  0  0
M  END
>  <CHROM.0>
-175.42636183,4.29051774,-71.86877134,91.96204200,2.88626086,-176.39319531
-60.22305563,-60.89137983

>  <CHROM.1>
161.10441309,53.03270498,179.63944536,82.82698145,23.68368916,20.20182095
16.94443166,2.97476127,0.60054759,-0.63188178

>  <FORMUL>
      FLP    C15 H13 F1 O2

>  <HET>
 FLP  A 701      18

>  <HETNAM>
     FLP FLURBIPROFEN

>  <Name>
FLP.pdb

>  <RI>
1.75979e+07

>  <Rbt.Current_Directory>
/home/malgorzata/Desktop/rDOCK_IFD/Wyniki/4_COX2/IFD

>  <Rbt.Executable>
rbdock ($Id: //depot/dev/client3/rdock/2013.1/src/exe/rbdock.cxx#4 $)

>  <Rbt.Library>
libRbt.so (2013.1, Build901 2013/11/27)

>  <Rbt.Parameter_File>
/home/malgorzata/Desktop/rDock_2013.1_src/data/scripts/dock.prm

>  <Rbt.Receptor>
cavity.prm

>  <SCORE>
-16.053

>  <SCORE.INTER>
-6.46177

>  <SCORE.INTER.CONST>
1

>  <SCORE.INTER.POLAR>
-0.904965

>  <SCORE.INTER.REPUL>
0

>  <SCORE.INTER.ROT>
3

>  <SCORE.INTER.VDW>
-11.7849

>  <SCORE.INTER.norm>
-0.358987

>  <SCORE.INTRA>
-0.79648

>  <SCORE.INTRA.DIHEDRAL>
-2.28361

>  <SCORE.INTRA.DIHEDRAL.0>
5.47211

>  <SCORE.INTRA.POLAR>
0

>  <SCORE.INTRA.POLAR.0>
0

>  <SCORE.INTRA.REPUL>
0

>  <SCORE.INTRA.REPUL.0>
0

>  <SCORE.INTRA.VDW>
0.345323

>  <SCORE.INTRA.VDW.0>
0.722234

>  <SCORE.INTRA.norm>
-0.0442489

>  <SCORE.RESTR>
0

>  <SCORE.RESTR.CAVITY>
0

>  <SCORE.RESTR.norm>
0

>  <SCORE.SYSTEM>
-8.79471

>  <SCORE.SYSTEM.CONST>
0

>  <SCORE.SYSTEM.DIHEDRAL>
1.12154

>  <SCORE.SYSTEM.POLAR>
-3.01233

>  <SCORE.SYSTEM.VDW>
0.886434

>  <SCORE.SYSTEM.norm>
-0.488595

>  <SCORE.heavy>
18

>  <SCORE.norm>
-0.891831

$$$$
FLP.pdb
  rDOCK(R)          3D
libRbt.so/2013.1/901 2013/11/27
 19 20  0  0  0  0  0  0  0  0999 V2000
   17.9640   14.9211   17.6423 C   0  0  0  0  0  0
   18.3643   16.2040   17.2079 C   0  0  0  0  0  0
   18.4672   17.2466   18.1233 C   0  0  0  0  0  0
   18.1709   17.0061   19.4661 C   0  0  0  0  0  0
   17.7733   15.7241   19.8915 C   0  0  0  0  0  0
   17.6711   14.6836   18.9739 C   0  0  0  0  0  0
   18.8621   18.6363   17.6711 C   0  0  0  0  0  0
   18.2016   19.2772   16.5950 C   0  0  0  0  0  0
   18.5864   20.5975   16.2090 C   0  0  0  0  0  0
   19.6444   21.2592   16.9226 C   0  0  0  0  0  0
   20.2771   20.6181   17.9809 C   0  0  0  0  0  0
   19.9039   19.3238   18.3566 C   0  0  0  0  0  0
   20.1575   22.6170   16.4890 C   0  0  0  0  0  0
   19.0382   23.4353   15.8495 C   0  0  0  0  0  0
   21.2905   22.3953   15.4877 C   0  0  0  0  0  0
   21.4797   21.3017   15.0151 O   0  0  0  0  0  0
   22.0868   23.3764   15.1543 O   0  0  0  0  0  0
   20.5628   18.7200   19.3812 F   0  0  0  0  0  0
   21.9569   24.2297   15.5189 H   0  0  0  0  0  0
  1  2  2  0  0  0
  2  3  1  0  0  0
  3  7  1  0  0  0
  4  3  2  0  0  0
  5  4  1  0  0  0
  6  5  2  0  0  0
  6  1  1  0  0  0
  7  8  2  0  0  0
  7 12  1  0  0  0
  8  9  1  0  0  0
  9 10  2  0  0  0
 10 13  1  0  0  0
 11 10  1  0  0  0
 12 11  2  0  0  0
 13 14  1  0  0  0
 15 17  1  0  0  0
 15 13  1  0  0  0
 16 15  2  0  0  0
 17 19  1  0  0  0
 18 12  1  0  0  0
M  END
>  <CHROM.0>
-172.79938511,6.09902243,-72.17693722,104.55563265,-174.59214391,-179.00710566
-60.03390858,-61.40960174

>  <CHROM.1>
51.06136924,31.24656421,-1.04586586,12.10390300,19.45216186,19.40168746,17.33149051
2.10103752,0.83587553,2.30814751

>  <FORMUL>
      FLP    C15 H13 F1 O2

>  <HET>
 FLP  A 701      18

>  <HETNAM>
     FLP FLURBIPROFEN

>  <Name>
FLP.pdb

>  <RI>
1.75979e+07

>  <Rbt.Current_Directory>
/home/malgorzata/Desktop/rDOCK_IFD/Wyniki/4_COX2/IFD

>  <Rbt.Executable>
rbdock ($Id: //depot/dev/client3/rdock/2013.1/src/exe/rbdock.cxx#4 $)

>  <Rbt.Library>
libRbt.so (2013.1, Build901 2013/11/27)

>  <Rbt.Parameter_File>
/home/malgorzata/Desktop/rDock_2013.1_src/data/scripts/dock.prm

>  <Rbt.Receptor>
cavity.prm

>  <SCORE>
-16.1855

>  <SCORE.INTER>
-6.71313

>  <SCORE.INTER.CONST>
1

>  <SCORE.INTER.POLAR>
-0.928619

>  <SCORE.INTER.REPUL>
0

>  <SCORE.INTER.ROT>
3

>  <SCORE.INTER.VDW>
-11.9558

>  <SCORE.INTER.norm>
-0.372952

>  <SCORE.INTRA>
-0.731445

>  <SCORE.INTRA.DIHEDRAL>
-0.811086

>  <SCORE.INTRA.DIHEDRAL.0>
5.47211

>  <SCORE.INTRA.POLAR>
0

>  <SCORE.INTRA.POLAR.0>
0

>  <SCORE.INTRA.REPUL>
0

>  <SCORE.INTRA.REPUL.0>
0

>  <SCORE.INTRA.VDW>
-0.325902

>  <SCORE.INTRA.VDW.0>
0.722234

>  <SCORE.INTRA.norm>
-0.0406358

>  <SCORE.RESTR>
0.00772437

>  <SCORE.RESTR.CAVITY>
0.00772437

>  <SCORE.RESTR.norm>
0.000429132

>  <SCORE.SYSTEM>
-8.7486

>  <SCORE.SYSTEM.CONST>
0

>  <SCORE.SYSTEM.DIHEDRAL>
1.24571

>  <SCORE.SYSTEM.POLAR>
-3.01415

>  <SCORE.SYSTEM.VDW>
0.87664

>  <SCORE.SYSTEM.norm>
-0.486033

>  <SCORE.heavy>
18

>  <SCORE.norm>
-0.899192

$$$$
FLP.pdb
  rDOCK(R)          3D
libRbt.so/2013.1/901 2013/11/27
 19 20  0  0  0  0  0  0  0  0999 V2000
   17.6993   15.6278   19.8593 C   0  0  0  0  0  0
   18.2266   16.9039   19.5620 C   0  0  0  0  0  0
   18.5448   17.2355   18.2489 C   0  0  0  0  0  0
   18.3361   16.2946   17.2389 C   0  0  0  0  0  0
   17.8092   15.0248   17.5431 C   0  0  0  0  0  0
   17.4924   14.6960   18.8571 C   0  0  0  0  0  0
   19.1420   18.5859   17.9154 C   0  0  0  0  0  0
   18.5416   19.4423   16.9609 C   0  0  0  0  0  0
   19.1208   20.7189   16.6867 C   0  0  0  0  0  0
   20.3111   21.1169   17.3875 C   0  0  0  0  0  0
   20.8831   20.2668   18.3262 C   0  0  0  0  0  0
   20.3192   19.0150   18.5922 C   0  0  0  0  0  0
   21.0203   22.4151   17.0607 C   0  0  0  0  0  0
   20.1513   23.6122   17.4390 C   0  0  0  0  0  0
   21.3151   22.4269   15.5612 C   0  0  0  0  0  0
   21.1642   21.4271   14.9034 O   0  0  0  0  0  0
   21.7628   23.5076   14.9785 O   0  0  0  0  0  0
   20.9214   18.2010   19.4995 F   0  0  0  0  0  0
   21.8874   24.2912   15.4769 H   0  0  0  0  0  0
  1  2  2  0  0  0
  2  3  1  0  0  0
  3  7  1  0  0  0
  4  3  2  0  0  0
  5  4  1  0  0  0
  6  5  2  0  0  0
  6  1  1  0  0  0
  7  8  2  0  0  0
  7 12  1  0  0  0
  8  9  1  0  0  0
  9 10  2  0  0  0
 10 13  1  0  0  0
 11 10  1  0  0  0
 12 11  2  0  0  0
 13 14  1  0  0  0
 15 17  1  0  0  0
 15 13  1  0  0  0
 16 15  2  0  0  0
 17 19  1  0  0  0
 18 12  1  0  0  0
M  END
>  <CHROM.0>
7.64356130,-137.10198390,-71.61089195,-99.71578257,6.01222830,174.88542533
-60.50647361,-61.72985579

>  <CHROM.1>
-124.66502780,66.70207083,-1.40787560,-10.74350208,19.68303438,19.35183273
17.56314118,-2.39953472,-1.04072314,-1.13212768

>  <FORMUL>
      FLP    C15 H13 F1 O2

>  <HET>
 FLP  A 701      18

>  <HETNAM>
     FLP FLURBIPROFEN

>  <Name>
FLP.pdb

>  <RI>
1.75979e+07

>  <Rbt.Current_Directory>
/home/malgorzata/Desktop/rDOCK_IFD/Wyniki/4_COX2/IFD

>  <Rbt.Executable>
rbdock ($Id: //depot/dev/client3/rdock/2013.1/src/exe/rbdock.cxx#4 $)

>  <Rbt.Library>
libRbt.so (2013.1, Build901 2013/11/27)

>  <Rbt.Parameter_File>
/home/malgorzata/Desktop/rDock_2013.1_src/data/scripts/dock.prm

>  <Rbt.Receptor>
cavity.prm

>  <SCORE>
-16.0584

>  <SCORE.INTER>
-7.137

>  <SCORE.INTER.CONST>
1

>  <SCORE.INTER.POLAR>
-0.959166

>  <SCORE.INTER.REPUL>
0

>  <SCORE.INTER.ROT>
3

>  <SCORE.INTER.VDW>
-12.2758

>  <SCORE.INTER.norm>
-0.3965

>  <SCORE.INTRA>
-1.03015

>  <SCORE.INTRA.DIHEDRAL>
-0.574561

>  <SCORE.INTRA.DIHEDRAL.0>
5.47211

>  <SCORE.INTRA.POLAR>
0

>  <SCORE.INTRA.POLAR.0>
0

>  <SCORE.INTRA.REPUL>
0

>  <SCORE.INTRA.REPUL.0>
0

>  <SCORE.INTRA.VDW>
-0.74287

>  <SCORE.INTRA.VDW.0>
0.722234

>  <SCORE.INTRA.norm>
-0.0572306

>  <SCORE.RESTR>
0

>  <SCORE.RESTR.CAVITY>
0

>  <SCORE.RESTR.norm>
0

>  <SCORE.SYSTEM>
-7.89124

>  <SCORE.SYSTEM.CONST>
0

>  <SCORE.SYSTEM.DIHEDRAL>
3.3559

>  <SCORE.SYSTEM.POLAR>
-3.00041

>  <SCORE.SYSTEM.REPUL>
0.00979145

>  <SCORE.SYSTEM.VDW>
0.583229

>  <SCORE.SYSTEM.norm>
-0.438402

>  <SCORE.heavy>
18

>  <SCORE.norm>
-0.892133

$$$$
FLP.pdb
  rDOCK(R)          3D
libRbt.so/2013.1/901 2013/11/27
 19 20  0  0  0  0  0  0  0  0999 V2000
   23.6190   20.4452   18.0281 C   0  0  0  0  0  0
   22.5263   19.5667   18.1992 C   0  0  0  0  0  0
   21.3740   19.7350   17.4382 C   0  0  0  0  0  0
   21.3159   20.7770   16.5109 C   0  0  0  0  0  0
   22.4098   21.6480   16.3456 C   0  0  0  0  0  0
   23.5606   21.4775   17.1082 C   0  0  0  0  0  0
   20.1802   18.8244   17.6311 C   0  0  0  0  0  0
   19.7067   18.4932   18.9238 C   0  0  0  0  0  0
   18.5643   17.6480   19.0680 C   0  0  0  0  0  0
   17.9091   17.1435   17.8921 C   0  0  0  0  0  0
   18.3830   17.4843   16.6311 C   0  0  0  0  0  0
   19.5040   18.3082   16.4890 C   0  0  0  0  0  0
   16.7576   16.1640   17.9915 C   0  0  0  0  0  0
   15.8126   16.5586   19.1239 C   0  0  0  0  0  0
   17.3409   14.7748   18.2475 C   0  0  0  0  0  0
   17.1250   13.8726   17.4765 O   0  0  0  0  0  0
   18.0531   14.5379   19.3174 O   0  0  0  0  0  0
   19.9527   18.5997   15.2391 F   0  0  0  0  0  0
   18.2059   15.2218   19.9394 H   0  0  0  0  0  0
  1  2  2  0  0  0
  2  3  1  0  0  0
  3  7  1  0  0  0
  4  3  2  0  0  0
  5  4  1  0  0  0
  6  5  2  0  0  0
  6  1  1  0  0  0
  7  8  2  0  0  0
  7 12  1  0  0  0
  8  9  1  0  0  0
  9 10  2  0  0  0
 10 13  1  0  0  0
 11 10  1  0  0  0
 12 11  2  0  0  0
 13 14  1  0  0  0
 15 17  1  0  0  0
 15 13  1  0  0  0
 16 15  2  0  0  0
 17 19  1  0  0  0
 18 12  1  0  0  0
M  END
>  <CHROM.0>
14.63667152,6.83384416,-71.41028526,-73.33080897,-171.26580344,-176.10368625
-60.05993388,5.28471587

>  <CHROM.1>
45.25499739,41.57518992,0.39590415,-120.92085635,19.59852512,18.01342825
17.63104305,-0.43553753,0.69248044,1.96325634

>  <FORMUL>
      FLP    C15 H13 F1 O2

>  <HET>
 FLP  A 701      18

>  <HETNAM>
     FLP FLURBIPROFEN

>  <Name>
FLP.pdb

>  <RI>
1.75979e+07

>  <Rbt.Current_Directory>
/home/malgorzata/Desktop/rDOCK_IFD/Wyniki/4_COX2/IFD

>  <Rbt.Executable>
rbdock ($Id: //depot/dev/client3/rdock/2013.1/src/exe/rbdock.cxx#4 $)

>  <Rbt.Library>
libRbt.so (2013.1, Build901 2013/11/27)

>  <Rbt.Parameter_File>
/home/malgorzata/Desktop/rDock_2013.1_src/data/scripts/dock.prm

>  <Rbt.Receptor>
cavity.prm

>  <SCORE>
-14.9015

>  <SCORE.INTER>
-6.58674

>  <SCORE.INTER.CONST>
1

>  <SCORE.INTER.POLAR>
0

>  <SCORE.INTER.REPUL>
0.0116903

>  <SCORE.INTER.ROT>
3

>  <SCORE.INTER.VDW>
-15.0452

>  <SCORE.INTER.norm>
-0.36593

>  <SCORE.INTRA>
-1.71431

>  <SCORE.INTRA.DIHEDRAL>
-1.44014

>  <SCORE.INTRA.DIHEDRAL.0>
5.47211

>  <SCORE.INTRA.POLAR>
0

>  <SCORE.INTRA.POLAR.0>
0

>  <SCORE.INTRA.REPUL>
0

>  <SCORE.INTRA.REPUL.0>
0

>  <SCORE.INTRA.VDW>
-0.99424

>  <SCORE.INTRA.VDW.0>
0.722234

>  <SCORE.INTRA.norm>
-0.0952394

>  <SCORE.RESTR>
0

>  <SCORE.RESTR.CAVITY>
0

>  <SCORE.RESTR.norm>
0

>  <SCORE.SYSTEM>
-6.60044

>  <SCORE.SYSTEM.CONST>
0

>  <SCORE.SYSTEM.DIHEDRAL>
8.55067

>  <SCORE.SYSTEM.POLAR>
-3.45024

>  <SCORE.SYSTEM.VDW>
0.855044

>  <SCORE.SYSTEM.norm>
-0.366691

>  <SCORE.heavy>
18

>  <SCORE.norm>
-0.82786

$$$$
FLP.pdb
  rDOCK(R)          3D
libRbt.so/2013.1/901 2013/11/27
 19 20  0  0  0  0  0  0  0  0999 V2000
   23.5734   20.6366   15.4410 C   0  0  0  0  0  0
   22.5218   19.7671   15.8056 C   0  0  0  0  0  0
   21.5277   20.2052   16.6747 C   0  0  0  0  0  0
   21.5860   21.5068   17.1758 C   0  0  0  0  0  0
   22.6371   22.3680   16.8069 C   0  0  0  0  0  0
   23.6299   21.9270   15.9381 C   0  0  0  0  0  0
   20.4112   19.2771   17.1032 C   0  0  0  0  0  0
   19.6299   18.5756   16.1532 C   0  0  0  0  0  0
   18.5983   17.6916   16.5941 C   0  0  0  0  0  0
   18.3674   17.5266   18.0034 C   0  0  0  0  0  0
   19.1483   18.2175   18.9220 C   0  0  0  0  0  0
   20.1556   19.0865   18.4911 C   0  0  0  0  0  0
   17.2218   16.6805   18.5198 C   0  0  0  0  0  0
   16.2356   17.5364   19.3110 C   0  0  0  0  0  0
   17.8081   15.5864   19.4113 C   0  0  0  0  0  0
   17.9282   15.7675   20.5978 O   0  0  0  0  0  0
   18.2148   14.4554   18.8982 O   0  0  0  0  0  0
   20.8826   19.7636   19.4194 F   0  0  0  0  0  0
   18.6420   13.8217   19.4404 H   0  0  0  0  0  0
  1  2  2  0  0  0
  2  3  1  0  0  0
  3  7  1  0  0  0
  4  3  2  0  0  0
  5  4  1  0  0  0
  6  5  2  0  0  0
  6  1  1  0  0  0
  7  8  2  0  0  0
  7 12  1  0  0  0
  8  9  1  0  0  0
  9 10  2  0  0  0
 10 13  1  0  0  0
 11 10  1  0  0  0
 12 11  2  0  0  0
 13 14  1  0  0  0
 15 17  1  0  0  0
 15 13  1  0  0  0
 16 15  2  0  0  0
 17 19  1  0  0  0
 18 12  1  0  0  0
M  END
>  <CHROM.0>
-179.79433096,3.62670100,-71.38002879,-115.34171855,-177.35058912,-178.07735726
-61.13726756,-61.33602375

>  <CHROM.1>
-52.50044435,-117.11644966,174.56834728,91.42721679,19.94912471,18.61490713
17.84319728,-0.05734655,-0.85999227,-2.16179642

>  <FORMUL>
      FLP    C15 H13 F1 O2

>  <HET>
 FLP  A 701      18

>  <HETNAM>
     FLP FLURBIPROFEN

>  <Name>
FLP.pdb

>  <RI>
1.75979e+07

>  <Rbt.Current_Directory>
/home/malgorzata/Desktop/rDOCK_IFD/Wyniki/4_COX2/IFD

>  <Rbt.Executable>
rbdock ($Id: //depot/dev/client3/rdock/2013.1/src/exe/rbdock.cxx#4 $)

>  <Rbt.Library>
libRbt.so (2013.1, Build901 2013/11/27)

>  <Rbt.Parameter_File>
/home/malgorzata/Desktop/rDock_2013.1_src/data/scripts/dock.prm

>  <Rbt.Receptor>
cavity.prm

>  <SCORE>
-18.5996

>  <SCORE.INTER>
-9.3173

>  <SCORE.INTER.CONST>
1

>  <SCORE.INTER.POLAR>
-0.978986

>  <SCORE.INTER.REPUL>
0

>  <SCORE.INTER.ROT>
3

>  <SCORE.INTER.VDW>
-14.3887

>  <SCORE.INTER.norm>
-0.517628

>  <SCORE.INTRA>
-0.515989

>  <SCORE.INTRA.DIHEDRAL>
-0.0162416

>  <SCORE.INTRA.DIHEDRAL.0>
5.47211

>  <SCORE.INTRA.POLAR>
0

>  <SCORE.INTRA.POLAR.0>
0

>  <SCORE.INTRA.REPUL>
0

>  <SCORE.INTRA.REPUL.0>
0

>  <SCORE.INTRA.VDW>
-0.507869

>  <SCORE.INTRA.VDW.0>
0.722234

>  <SCORE.INTRA.norm>
-0.0286661

>  <SCORE.RESTR>
0

>  <SCORE.RESTR.CAVITY>
0

>  <SCORE.RESTR.norm>
0

>  <SCORE.SYSTEM>
-8.76634

>  <SCORE.SYSTEM.CONST>
0

>  <SCORE.SYSTEM.DIHEDRAL>
1.07204

>  <SCORE.SYSTEM.POLAR>
-2.989

>  <SCORE.SYSTEM.VDW>
0.860238

>  <SCORE.SYSTEM.norm>
-0.487019

>  <SCORE.heavy>
18

>  <SCORE.norm>
-1.03331

$$$$
FLP.pdb
  rDOCK(R)          3D
libRbt.so/2013.1/901 2013/11/27
 19 20  0  0  0  0  0  0  0  0999 V2000
   23.7228   21.2107   17.5425 C   0  0  0  0  0  0
   22.7186   20.2555   17.8144 C   0  0  0  0  0  0
   21.5219   20.2846   17.1057 C   0  0  0  0  0  0
   21.3315   21.2647   16.1300 C   0  0  0  0  0  0
   22.3378   22.2130   15.8641 C   0  0  0  0  0  0
   23.5333   22.1816   16.5746 C   0  0  0  0  0  0
   20.4208   19.2901   17.4063 C   0  0  0  0  0  0
   20.0057   19.0288   18.7346 C   0  0  0  0  0  0
   18.9488   18.0997   18.9798 C   0  0  0  0  0  0
   18.3194   17.4402   17.8684 C   0  0  0  0  0  0
   18.7347   17.7139   16.5708 C   0  0  0  0  0  0
   19.7722   18.6201   16.3300 C   0  0  0  0  0  0
   17.2650   16.3733   18.0802 C   0  0  0  0  0  0
   15.9687   16.9937   18.5959 C   0  0  0  0  0  0
   17.8099   15.3661   19.0923 C   0  0  0  0  0  0
   17.8683   15.6508   20.2630 O   0  0  0  0  0  0
   18.2475   14.1985   18.7011 O   0  0  0  0  0  0
   20.1672   18.8434   15.0484 F   0  0  0  0  0  0
   18.6919   13.6380   19.3063 H   0  0  0  0  0  0
  1  2  2  0  0  0
  2  3  1  0  0  0
  3  7  1  0  0  0
  4  3  2  0  0  0
  5  4  1  0  0  0
  6  5  2  0  0  0
  6  1  1  0  0  0
  7  8  2  0  0  0
  7 12  1  0  0  0
  8  9  1  0  0  0
  9 10  2  0  0  0
 10 13  1  0  0  0
 11 10  1  0  0  0
 12 11  2  0  0  0
 13 14  1  0  0  0
 15 17  1  0  0  0
 15 13  1  0  0  0
 16 15  2  0  0  0
 17 19  1  0  0  0
 18 12  1  0  0  0
M  END
>  <CHROM.0>
14.73220141,10.50250196,-71.94081406,-108.99007398,-169.24602434,-174.28231682
-59.39246764,-62.21307481

>  <CHROM.1>
47.53648007,71.12404060,171.16301169,74.47190819,19.85731936,18.50295879
17.59434811,-0.63479867,0.64765201,2.06102263

>  <FORMUL>
      FLP    C15 H13 F1 O2

>  <HET>
 FLP  A 701      18

>  <HETNAM>
     FLP FLURBIPROFEN

>  <Name>
FLP.pdb

>  <RI>
1.75979e+07

>  <Rbt.Current_Directory>
/home/malgorzata/Desktop/rDOCK_IFD/Wyniki/4_COX2/IFD

>  <Rbt.Executable>
rbdock ($Id: //depot/dev/client3/rdock/2013.1/src/exe/rbdock.cxx#4 $)

>  <Rbt.Library>
libRbt.so (2013.1, Build901 2013/11/27)

>  <Rbt.Parameter_File>
/home/malgorzata/Desktop/rDock_2013.1_src/data/scripts/dock.prm

>  <Rbt.Receptor>
cavity.prm

>  <SCORE>
-19.4659

>  <SCORE.INTER>
-9.93881

>  <SCORE.INTER.CONST>
1

>  <SCORE.INTER.POLAR>
-0.899365

>  <SCORE.INTER.REPUL>
0

>  <SCORE.INTER.ROT>
3

>  <SCORE.INTER.VDW>
-15.281

>  <SCORE.INTER.norm>
-0.552156

>  <SCORE.INTRA>
-1.02661

>  <SCORE.INTRA.DIHEDRAL>
0.524308

>  <SCORE.INTRA.DIHEDRAL.0>
5.47211

>  <SCORE.INTRA.POLAR>
0

>  <SCORE.INTRA.POLAR.0>
0

>  <SCORE.INTRA.REPUL>
0

>  <SCORE.INTRA.REPUL.0>
0

>  <SCORE.INTRA.VDW>
-1.28877

>  <SCORE.INTRA.VDW.0>
0.722234

>  <SCORE.INTRA.norm>
-0.0570341

>  <SCORE.RESTR>
0

>  <SCORE.RESTR.CAVITY>
0

>  <SCORE.RESTR.norm>
0

>  <SCORE.SYSTEM>
-8.50044

>  <SCORE.SYSTEM.CONST>
0

>  <SCORE.SYSTEM.DIHEDRAL>
1.73917

>  <SCORE.SYSTEM.POLAR>
-3.00605

>  <SCORE.SYSTEM.VDW>
0.85056

>  <SCORE.SYSTEM.norm>
-0.472247

>  <SCORE.heavy>
18

>  <SCORE.norm>
-1.08144

$$$$
FLP.pdb
  rDOCK(R)          3D
libRbt.so/2013.1/901 2013/11/27
 19 20  0  0  0  0  0  0  0  0999 V2000
   22.2517   21.9982   16.7032 C   0  0  0  0  0  0
   21.1465   21.1516   16.9409 C   0  0  0  0  0  0
   21.3498   19.8623   17.4221 C   0  0  0  0  0  0
   22.6525   19.4229   17.6642 C   0  0  0  0  0  0
   23.7492   20.2732   17.4256 C   0  0  0  0  0  0
   23.5428   21.5618   16.9440 C   0  0  0  0  0  0
   20.1801   18.9290   17.6511 C   0  0  0  0  0  0
   19.6416   18.7253   18.9448 C   0  0  0  0  0  0
   18.5237   17.8538   19.1209 C   0  0  0  0  0  0
   17.9593   17.1928   17.9759 C   0  0  0  0  0  0
   18.4959   17.4097   16.7125 C   0  0  0  0  0  0
   19.5931   18.2595   16.5398 C   0  0  0  0  0  0
   16.8400   16.1826   18.1223 C   0  0  0  0  0  0
   15.9088   16.5743   19.2672 C   0  0  0  0  0  0
   17.4698   14.8171   18.3949 C   0  0  0  0  0  0
   17.2144   13.8764   17.6842 O   0  0  0  0  0  0
   18.2663   14.6424   19.4161 O   0  0  0  0  0  0
   20.1056   18.4275   15.2918 F   0  0  0  0  0  0
   18.6858   13.8148   19.5469 H   0  0  0  0  0  0
  1  2  2  0  0  0
  2  3  1  0  0  0
  3  7  1  0  0  0
  4  3  2  0  0  0
  5  4  1  0  0  0
  6  5  2  0  0  0
  6  1  1  0  0  0
  7  8  2  0  0  0
  7 12  1  0  0  0
  8  9  1  0  0  0
  9 10  2  0  0  0
 10 13  1  0  0  0
 11 10  1  0  0  0
 12 11  2  0  0  0
 13 14  1  0  0  0
 15 17  1  0  0  0
 15 13  1  0  0  0
 16 15  2  0  0  0
 17 19  1  0  0  0
 18 12  1  0  0  0
M  END
>  <CHROM.0>
12.33845997,-136.54419404,-71.58372826,95.52066437,-173.40241964,-178.30685806
-60.39617219,4.86134051

>  <CHROM.1>
-100.03203092,34.54003996,-176.53006516,-124.38544265,19.65018083,18.06244395
17.66431335,0.16446930,-0.80894400,-1.61602409

>  <FORMUL>
      FLP    C15 H13 F1 O2

>  <HET>
 FLP  A 701      18

>  <HETNAM>
     FLP FLURBIPROFEN

>  <Name>
FLP.pdb

>  <RI>
1.75979e+07

>  <Rbt.Current_Directory>
/home/malgorzata/Desktop/rDOCK_IFD/Wyniki/4_COX2/IFD

>  <Rbt.Executable>
rbdock ($Id: //depot/dev/client3/rdock/2013.1/src/exe/rbdock.cxx#4 $)

>  <Rbt.Library>
libRbt.so (2013.1, Build901 2013/11/27)

>  <Rbt.Parameter_File>
/home/malgorzata/Desktop/rDock_2013.1_src/data/scripts/dock.prm

>  <Rbt.Receptor>
cavity.prm

>  <SCORE>
-16.941

>  <SCORE.INTER>
-10.2128

>  <SCORE.INTER.CONST>
1

>  <SCORE.INTER.POLAR>
-1.00676

>  <SCORE.INTER.REPUL>
0

>  <SCORE.INTER.ROT>
3

>  <SCORE.INTER.VDW>
-15.1898

>  <SCORE.INTER.norm>
-0.567376

>  <SCORE.INTRA>
-0.893293

>  <SCORE.INTRA.DIHEDRAL>
0.931752

>  <SCORE.INTRA.DIHEDRAL.0>
5.47211

>  <SCORE.INTRA.POLAR>
0

>  <SCORE.INTRA.POLAR.0>
0

>  <SCORE.INTRA.REPUL>
0

>  <SCORE.INTRA.REPUL.0>
0

>  <SCORE.INTRA.VDW>
-1.35917

>  <SCORE.INTRA.VDW.0>
0.722234

>  <SCORE.INTRA.norm>
-0.0496274

>  <SCORE.RESTR>
0

>  <SCORE.RESTR.CAVITY>
0

>  <SCORE.RESTR.norm>
0

>  <SCORE.SYSTEM>
-5.83495

>  <SCORE.SYSTEM.CONST>
0

>  <SCORE.SYSTEM.DIHEDRAL>
10.5034

>  <SCORE.SYSTEM.POLAR>
-3.4471

>  <SCORE.SYSTEM.REPUL>
0.0110568

>  <SCORE.SYSTEM.VDW>
0.578214

>  <SCORE.SYSTEM.norm>
-0.324164

>  <SCORE.heavy>
18

>  <SCORE.norm>
-0.941167

$$$$
FLP.pdb
  rDOCK(R)          3D
libRbt.so/2013.1/901 2013/11/27
 19 20  0  0  0  0  0  0  0  0999 V2000
   18.2981   18.2646   16.7610 C   0  0  0  0  0  0
   19.6949   18.4450   16.6553 C   0  0  0  0  0  0
   20.3763   19.1756   17.6234 C   0  0  0  0  0  0
   19.6632   19.7225   18.6916 C   0  0  0  0  0  0
   18.2709   19.5375   18.7905 C   0  0  0  0  0  0
   17.5922   18.8068   17.8207 C   0  0  0  0  0  0
   21.8678   19.4079   17.5094 C   0  0  0  0  0  0
   22.7015   19.4226   18.6539 C   0  0  0  0  0  0
   24.1080   19.6235   18.5070 C   0  0  0  0  0  0
   24.6589   19.8090   17.1922 C   0  0  0  0  0  0
   23.8271   19.7847   16.0794 C   0  0  0  0  0  0
   22.4494   19.5924   16.2226 C   0  0  0  0  0  0
   26.1266   20.1259   16.9912 C   0  0  0  0  0  0
   26.2981   21.5173   16.3862 C   0  0  0  0  0  0
   26.7145   19.0667   16.0594 C   0  0  0  0  0  0
   26.1577   18.0064   15.9154 O   0  0  0  0  0  0
   27.8405   19.2819   15.4321 O   0  0  0  0  0  0
   21.6647   19.5993   15.1123 F   0  0  0  0  0  0
   28.1915   18.6268   14.8615 H   0  0  0  0  0  0
  1  2  2  0  0  0
  2  3  1  0  0  0
  3  7  1  0  0  0
  4  3  2  0  0  0
  5  4  1  0  0  0
  6  5  2  0  0  0
  6  1  1  0  0  0
  7  8  2  0  0  0
  7 12  1  0  0  0
  8  9  1  0  0  0
  9 10  2  0  0  0
 10 13  1  0  0  0
 11 10  1  0  0  0
 12 11  2  0  0  0
 13 14  1  0  0  0
 15 17  1  0  0  0
 15 13  1  0  0  0
 16 15  2  0  0  0
 17 19  1  0  0  0
 18 12  1  0  0  0
M  END
>  <CHROM.0>
-177.24942735,1.59762673,-71.93965780,-88.61482571,179.82510854,-178.67774950
-59.83338030,4.82963576

>  <CHROM.1>
-143.53896101,-115.16802725,-179.86011424,-20.17482878,22.80590694,19.39995323
16.93065684,2.98699715,0.13948087,1.20345618

>  <FORMUL>
      FLP    C15 H13 F1 O2

>  <HET>
 FLP  A 701      18

>  <HETNAM>
     FLP FLURBIPROFEN

>  <Name>
FLP.pdb

>  <RI>
1.75979e+07

>  <Rbt.Current_Directory>
/home/malgorzata/Desktop/rDOCK_IFD/Wyniki/4_COX2/IFD

>  <Rbt.Executable>
rbdock ($Id: //depot/dev/client3/rdock/2013.1/src/exe/rbdock.cxx#4 $)

>  <Rbt.Library>
libRbt.so (2013.1, Build901 2013/11/27)

>  <Rbt.Parameter_File>
/home/malgorzata/Desktop/rDock_2013.1_src/data/scripts/dock.prm

>  <Rbt.Receptor>
cavity.prm

>  <SCORE>
-13.1568

>  <SCORE.INTER>
-5.38294

>  <SCORE.INTER.CONST>
1

>  <SCORE.INTER.POLAR>
-0.824901

>  <SCORE.INTER.REPUL>
0

>  <SCORE.INTER.ROT>
3

>  <SCORE.INTER.VDW>
-10.9783

>  <SCORE.INTER.norm>
-0.299052

>  <SCORE.INTRA>
-0.925474

>  <SCORE.INTRA.DIHEDRAL>
-1.79462

>  <SCORE.INTRA.DIHEDRAL.0>
5.47211

>  <SCORE.INTRA.POLAR>
0

>  <SCORE.INTRA.POLAR.0>
0

>  <SCORE.INTRA.REPUL>
0

>  <SCORE.INTRA.REPUL.0>
0

>  <SCORE.INTRA.VDW>
-0.0281663

>  <SCORE.INTRA.VDW.0>
0.722234

>  <SCORE.INTRA.norm>
-0.0514152

>  <SCORE.RESTR>
0

>  <SCORE.RESTR.CAVITY>
0

>  <SCORE.RESTR.norm>
0

>  <SCORE.SYSTEM>
-6.84836

>  <SCORE.SYSTEM.CONST>
0

>  <SCORE.SYSTEM.DIHEDRAL>
8.19889

>  <SCORE.SYSTEM.POLAR>
-3.46067

>  <SCORE.SYSTEM.VDW>
0.818458

>  <SCORE.SYSTEM.norm>
-0.380465

>  <SCORE.heavy>
18

>  <SCORE.norm>
-0.730932

$$$$
FLP.pdb
  rDOCK(R)          3D
libRbt.so/2013.1/901 2013/11/27
 19 20  0  0  0  0  0  0  0  0999 V2000
   17.5888   16.4250   19.7290 C   0  0  0  0  0  0
   18.3203   17.4449   19.0813 C   0  0  0  0  0  0
   18.7217   17.2797   17.7595 C   0  0  0  0  0  0
   18.3925   16.0999   17.0899 C   0  0  0  0  0  0
   17.6622   15.0881   17.7422 C   0  0  0  0  0  0
   17.2625   15.2559   19.0640 C   0  0  0  0  0  0
   19.5350   18.3473   17.0593 C   0  0  0  0  0  0
   19.4665   18.5246   15.6561 C   0  0  0  0  0  0
   20.2319   19.5562   15.0313 C   0  0  0  0  0  0
   21.0647   20.4032   15.8408 C   0  0  0  0  0  0
   21.1145   20.2196   17.2173 C   0  0  0  0  0  0
   20.3689   19.2072   17.8294 C   0  0  0  0  0  0
   21.9716   21.4440   15.2169 C   0  0  0  0  0  0
   23.4194   21.2240   15.6493 C   0  0  0  0  0  0
   21.4876   22.8220   15.6668 C   0  0  0  0  0  0
   21.3184   23.0549   16.8382 O   0  0  0  0  0  0
   21.2214   23.7539   14.7902 O   0  0  0  0  0  0
   20.4626   19.0427   19.1758 F   0  0  0  0  0  0
   21.3442   23.5864   13.8765 H   0  0  0  0  0  0
  1  2  2  0  0  0
  2  3  1  0  0  0
  3  7  1  0  0  0
  4  3  2  0  0  0
  5  4  1  0  0  0
  6  5  2  0  0  0
  6  1  1  0  0  0
  7  8  2  0  0  0
  7 12  1  0  0  0
  8  9  1  0  0  0
  9 10  2  0  0  0
 10 13  1  0  0  0
 11 10  1  0  0  0
 12 11  2  0  0  0
 13 14  1  0  0  0
 15 17  1  0  0  0
 15 13  1  0  0  0
 16 15  2  0  0  0
 17 19  1  0  0  0
 18 12  1  0  0  0
M  END
>  <CHROM.0>
-175.48638537,7.04636587,-72.02946146,100.59908069,-172.97455178,-175.31702139
-60.03961761,-61.69380477

>  <CHROM.1>
-151.77518180,-123.47009186,-1.30004497,51.88336606,20.05047383,19.30339154
17.02707216,-2.86148872,-1.04605211,-1.69308051

>  <FORMUL>
      FLP    C15 H13 F1 O2

>  <HET>
 FLP  A 701      18

>  <HETNAM>
     FLP FLURBIPROFEN

>  <Name>
FLP.pdb

>  <RI>
1.75979e+07

>  <Rbt.Current_Directory>
/home/malgorzata/Desktop/rDOCK_IFD/Wyniki/4_COX2/IFD

>  <Rbt.Executable>
rbdock ($Id: //depot/dev/client3/rdock/2013.1/src/exe/rbdock.cxx#4 $)

>  <Rbt.Library>
libRbt.so (2013.1, Build901 2013/11/27)

>  <Rbt.Parameter_File>
/home/malgorzata/Desktop/rDock_2013.1_src/data/scripts/dock.prm

>  <Rbt.Receptor>
cavity.prm

>  <SCORE>
-13.79

>  <SCORE.INTER>
-4.4911

>  <SCORE.INTER.CONST>
1

>  <SCORE.INTER.POLAR>
0

>  <SCORE.INTER.REPUL>
0

>  <SCORE.INTER.ROT>
3

>  <SCORE.INTER.VDW>
-12.8911

>  <SCORE.INTER.norm>
-0.249505

>  <SCORE.INTRA>
-0.550095

>  <SCORE.INTRA.DIHEDRAL>
-1.32362

>  <SCORE.INTRA.DIHEDRAL.0>
5.47211

>  <SCORE.INTRA.POLAR>
0

>  <SCORE.INTRA.POLAR.0>
0

>  <SCORE.INTRA.REPUL>
0

>  <SCORE.INTRA.REPUL.0>
0

>  <SCORE.INTRA.VDW>
0.111715

>  <SCORE.INTRA.VDW.0>
0.722234

>  <SCORE.INTRA.norm>
-0.0305608

>  <SCORE.RESTR>
0

>  <SCORE.RESTR.CAVITY>
0

>  <SCORE.RESTR.norm>
0

>  <SCORE.SYSTEM>
-8.74879

>  <SCORE.SYSTEM.CONST>
0

>  <SCORE.SYSTEM.DIHEDRAL>
1.25611

>  <SCORE.SYSTEM.POLAR>
-3.01267

>  <SCORE.SYSTEM.VDW>
0.866223

>  <SCORE.SYSTEM.norm>
-0.486044

>  <SCORE.heavy>
18

>  <SCORE.norm>
-0.76611

$$$$
FLP.pdb
  rDOCK(R)          3D
libRbt.so/2013.1/901 2013/11/27
 19 20  0  0  0  0  0  0  0  0999 V2000
   22.9994   21.1341   16.8610 C   0  0  0  0  0  0
   22.0183   20.1748   17.1957 C   0  0  0  0  0  0
   20.6852   20.5555   17.3106 C   0  0  0  0  0  0
   20.3362   21.8893   17.0915 C   0  0  0  0  0  0
   21.3199   22.8396   16.7573 C   0  0  0  0  0  0
   22.6522   22.4560   16.6435 C   0  0  0  0  0  0
   19.6245   19.5486   17.7013 C   0  0  0  0  0  0
   18.3898   19.4733   17.0121 C   0  0  0  0  0  0
   17.4203   18.4964   17.3942 C   0  0  0  0  0  0
   17.7142   17.5997   18.4786 C   0  0  0  0  0  0
   18.9338   17.6830   19.1394 C   0  0  0  0  0  0
   19.8818   18.6419   18.7688 C   0  0  0  0  0  0
   16.6819   16.6147   18.9876 C   0  0  0  0  0  0
   16.3531   16.8899   20.4531 C   0  0  0  0  0  0
   17.2545   15.2068   18.8283 C   0  0  0  0  0  0
   16.7776   14.4431   18.0255 O   0  0  0  0  0  0
   18.2449   14.8013   19.5783 O   0  0  0  0  0  0
   21.0537   18.7087   19.4550 F   0  0  0  0  0  0
   18.5998   13.9420   19.4613 H   0  0  0  0  0  0
  1  2  2  0  0  0
  2  3  1  0  0  0
  3  7  1  0  0  0
  4  3  2  0  0  0
  5  4  1  0  0  0
  6  5  2  0  0  0
  6  1  1  0  0  0
  7  8  2  0  0  0
  7 12  1  0  0  0
  8  9  1  0  0  0
  9 10  2  0  0  0
 10 13  1  0  0  0
 11 10  1  0  0  0
 12 11  2  0  0  0
 13 14  1  0  0  0
 15 17  1  0  0  0
 15 13  1  0  0  0
 16 15  2  0  0  0
 17 19  1  0  0  0
 18 12  1  0  0  0
M  END
>  <CHROM.0>
-172.34178581,7.68548862,-71.95599958,-57.53629934,6.74199449,-172.71438582
-59.86072490,-60.97971845

>  <CHROM.1>
-134.54598622,-118.75137854,-178.81094394,-111.55622696,19.32775708,18.60381770
18.16660802,-0.92351670,0.18090147,2.67317534

>  <FORMUL>
      FLP    C15 H13 F1 O2

>  <HET>
 FLP  A 701      18

>  <HETNAM>
     FLP FLURBIPROFEN

>  <Name>
FLP.pdb

>  <RI>
1.75979e+07

>  <Rbt.Current_Directory>
/home/malgorzata/Desktop/rDOCK_IFD/Wyniki/4_COX2/IFD

>  <Rbt.Executable>
rbdock ($Id: //depot/dev/client3/rdock/2013.1/src/exe/rbdock.cxx#4 $)

>  <Rbt.Library>
libRbt.so (2013.1, Build901 2013/11/27)

>  <Rbt.Parameter_File>
/home/malgorzata/Desktop/rDock_2013.1_src/data/scripts/dock.prm

>  <Rbt.Receptor>
cavity.prm

>  <SCORE>
-18.8461

>  <SCORE.INTER>
-8.41623

>  <SCORE.INTER.CONST>
1

>  <SCORE.INTER.POLAR>
-1.01808

>  <SCORE.INTER.REPUL>
0

>  <SCORE.INTER.ROT>
3

>  <SCORE.INTER.VDW>
-13.3548

>  <SCORE.INTER.norm>
-0.467568

>  <SCORE.INTRA>
-1.70639

>  <SCORE.INTRA.DIHEDRAL>
-1.40727

>  <SCORE.INTRA.DIHEDRAL.0>
5.47211

>  <SCORE.INTRA.POLAR>
0

>  <SCORE.INTRA.POLAR.0>
0

>  <SCORE.INTRA.REPUL>
0

>  <SCORE.INTRA.REPUL.0>
0

>  <SCORE.INTRA.VDW>
-1.00275

>  <SCORE.INTRA.VDW.0>
0.722234

>  <SCORE.INTRA.norm>
-0.0947993

>  <SCORE.RESTR>
0.0056892

>  <SCORE.RESTR.CAVITY>
0.0056892

>  <SCORE.RESTR.norm>
0.000316067

>  <SCORE.SYSTEM>
-8.72917

>  <SCORE.SYSTEM.CONST>
0

>  <SCORE.SYSTEM.DIHEDRAL>
1.35099

>  <SCORE.SYSTEM.POLAR>
-3.01882

>  <SCORE.SYSTEM.VDW>
0.859324

>  <SCORE.SYSTEM.norm>
-0.484954

>  <SCORE.heavy>
18

>  <SCORE.norm>
-1.04701

$$$$
