FLP.pdb
  rDOCK(R)          3D
libRbt.so/2013.1/901 2013/11/27
 19 20  0  0  0  0  0  0  0  0999 V2000
   27.0748   24.3595   11.0224 C   0  0  0  0  0  0
   27.0273   23.8399   12.3349 C   0  0  0  0  0  0
   25.8645   23.2347   12.8009 C   0  0  0  0  0  0
   24.7554   23.1501   11.9574 C   0  0  0  0  0  0
   24.8109   23.6695   10.6498 C   0  0  0  0  0  0
   25.9749   24.2745   10.1868 C   0  0  0  0  0  0
   25.7836   22.7022   14.2156 C   0  0  0  0  0  0
   25.3302   21.3878   14.4838 C   0  0  0  0  0  0
   25.2870   20.9110   15.8296 C   0  0  0  0  0  0
   25.7064   21.7776   16.8971 C   0  0  0  0  0  0
   26.1552   23.0622   16.6151 C   0  0  0  0  0  0
   26.1937   23.5313   15.2983 C   0  0  0  0  0  0
   25.5846   21.3563   18.3472 C   0  0  0  0  0  0
   26.9627   21.2671   18.9985 C   0  0  0  0  0  0
   24.8909   19.9951   18.3862 C   0  0  0  0  0  0
   23.7491   19.9046   18.7647 O   0  0  0  0  0  0
   25.5322   18.9101   18.0409 O   0  0  0  0  0  0
   26.6157   24.8024   15.0643 F   0  0  0  0  0  0
   26.4296   18.9605   17.7762 H   0  0  0  0  0  0
  1  2  2  0  0  0
  2  3  1  0  0  0
  3  7  1  0  0  0
  4  3  2  0  0  0
  5  4  1  0  0  0
  6  5  2  0  0  0
  6  1  1  0  0  0
  7  8  2  0  0  0
  7 12  1  0  0  0
  8  9  1  0  0  0
  9 10  2  0  0  0
 10 13  1  0  0  0
 11 10  1  0  0  0
 12 11  2  0  0  0
 13 14  1  0  0  0
 15 17  1  0  0  0
 15 13  1  0  0  0
 16 15  2  0  0  0
 17 19  1  0  0  0
 18 12  1  0  0  0
M  END
>  <CHROM.0>
4.65941445,-179.62536472,4.14677787,-88.05994165,170.71055102,-59.58337720
-60.37810297

>  <CHROM.1>
-129.70228331,116.91434247,0.76522043,-107.11286328,25.74752072,22.30862669
15.11269237,-1.42031902,0.94586459,1.93838427

>  <FORMUL>
      FLP    C15 H13 F1 O2

>  <HET>
 FLP  A 701      18

>  <HETNAM>
     FLP FLURBIPROFEN

>  <Name>
FLP.pdb

>  <RI>
0

>  <Rbt.Current_Directory>
/home/malgorzata/Desktop/rDOCK_IFD/Wyniki/4_COX2/IFD

>  <Rbt.Executable>
rbdock ($Id: //depot/dev/client3/rdock/2013.1/src/exe/rbdock.cxx#4 $)

>  <Rbt.Library>
libRbt.so (2013.1, Build901 2013/11/27)

>  <Rbt.Parameter_File>
/home/malgorzata/Desktop/rDock_2013.1_src/data/scripts/hard_docking.prm

>  <Rbt.Receptor>
cavity.prm

>  <SCORE>
-12.7075

>  <SCORE.INTER>
-8.61359

>  <SCORE.INTER.CONST>
1

>  <SCORE.INTER.POLAR>
0

>  <SCORE.INTER.REPUL>
0

>  <SCORE.INTER.ROT>
3

>  <SCORE.INTER.VDW>
-17.0136

>  <SCORE.INTER.norm>
-0.478533

>  <SCORE.INTRA>
-0.787539

>  <SCORE.INTRA.DIHEDRAL>
-0.934685

>  <SCORE.INTRA.DIHEDRAL.0>
5.47211

>  <SCORE.INTRA.POLAR>
0

>  <SCORE.INTRA.POLAR.0>
0

>  <SCORE.INTRA.REPUL>
0

>  <SCORE.INTRA.REPUL.0>
0

>  <SCORE.INTRA.VDW>
-0.320197

>  <SCORE.INTRA.VDW.0>
0.722234

>  <SCORE.INTRA.norm>
-0.0437522

>  <SCORE.RESTR>
0

>  <SCORE.RESTR.CAVITY>
0

>  <SCORE.RESTR.norm>
0

>  <SCORE.SYSTEM>
-3.30633

>  <SCORE.SYSTEM.CONST>
0

>  <SCORE.SYSTEM.DIHEDRAL>
0.604322

>  <SCORE.SYSTEM.POLAR>
-0.498354

>  <SCORE.SYSTEM.REPUL>
0.042748

>  <SCORE.SYSTEM.VDW>
-2.12783

>  <SCORE.SYSTEM.norm>
-0.183685

>  <SCORE.heavy>
18

>  <SCORE.norm>
-0.70597

$$$$
FLP.pdb
  rDOCK(R)          3D
libRbt.so/2013.1/901 2013/11/27
 19 20  0  0  0  0  0  0  0  0999 V2000
   25.1865   24.1568   10.6614 C   0  0  0  0  0  0
   25.4002   23.6410   11.9588 C   0  0  0  0  0  0
   24.3141   23.3411   12.7747 C   0  0  0  0  0  0
   23.0211   23.5564   12.2945 C   0  0  0  0  0  0
   22.8162   24.0700   10.9996 C   0  0  0  0  0  0
   23.9043   24.3693   10.1860 C   0  0  0  0  0  0
   24.5237   22.8192   14.1802 C   0  0  0  0  0  0
   25.4986   21.8318   14.4623 C   0  0  0  0  0  0
   25.6838   21.3779   15.8039 C   0  0  0  0  0  0
   24.8730   21.9332   16.8531 C   0  0  0  0  0  0
   23.9258   22.9066   16.5594 C   0  0  0  0  0  0
   23.7408   23.3485   15.2455 C   0  0  0  0  0  0
   24.9599   21.4142   18.2737 C   0  0  0  0  0  0
   26.4062   21.4273   18.7631 C   0  0  0  0  0  0
   24.4077   19.9893   18.2899 C   0  0  0  0  0  0
   25.1529   19.0467   18.1843 O   0  0  0  0  0  0
   23.1224   19.7738   18.3868 O   0  0  0  0  0  0
   22.7873   24.2845   14.9938 F   0  0  0  0  0  0
   22.8015   18.9018   18.5080 H   0  0  0  0  0  0
  1  2  2  0  0  0
  2  3  1  0  0  0
  3  7  1  0  0  0
  4  3  2  0  0  0
  5  4  1  0  0  0
  6  5  2  0  0  0
  6  1  1  0  0  0
  7  8  2  0  0  0
  7 12  1  0  0  0
  8  9  1  0  0  0
  9 10  2  0  0  0
 10 13  1  0  0  0
 11 10  1  0  0  0
 12 11  2  0  0  0
 13 14  1  0  0  0
 15 17  1  0  0  0
 15 13  1  0  0  0
 16 15  2  0  0  0
 17 19  1  0  0  0
 18 12  1  0  0  0
M  END
>  <CHROM.0>
179.02911397,-61.82631326,0.97686937,-75.29196674,168.07362519,59.19364788
-60.37810297

>  <CHROM.1>
-43.05200006,53.11877630,-172.04793393,94.56124548,24.39262526,22.35770211
15.05573592,-1.68507907,-0.40269311,2.01581402

>  <FORMUL>
      FLP    C15 H13 F1 O2

>  <HET>
 FLP  A 701      18

>  <HETNAM>
     FLP FLURBIPROFEN

>  <Name>
FLP.pdb

>  <RI>
0

>  <Rbt.Current_Directory>
/home/malgorzata/Desktop/rDOCK_IFD/Wyniki/4_COX2/IFD

>  <Rbt.Executable>
rbdock ($Id: //depot/dev/client3/rdock/2013.1/src/exe/rbdock.cxx#4 $)

>  <Rbt.Library>
libRbt.so (2013.1, Build901 2013/11/27)

>  <Rbt.Parameter_File>
/home/malgorzata/Desktop/rDock_2013.1_src/data/scripts/hard_docking.prm

>  <Rbt.Receptor>
cavity.prm

>  <SCORE>
-14.2496

>  <SCORE.INTER>
-11.9869

>  <SCORE.INTER.CONST>
1

>  <SCORE.INTER.POLAR>
-0.60297

>  <SCORE.INTER.REPUL>
0

>  <SCORE.INTER.ROT>
3

>  <SCORE.INTER.VDW>
-18.3368

>  <SCORE.INTER.norm>
-0.665938

>  <SCORE.INTRA>
-0.671693

>  <SCORE.INTRA.DIHEDRAL>
-0.519198

>  <SCORE.INTRA.DIHEDRAL.0>
5.47211

>  <SCORE.INTRA.POLAR>
0

>  <SCORE.INTRA.POLAR.0>
0

>  <SCORE.INTRA.REPUL>
0

>  <SCORE.INTRA.REPUL.0>
0

>  <SCORE.INTRA.VDW>
-0.412095

>  <SCORE.INTRA.VDW.0>
0.722234

>  <SCORE.INTRA.norm>
-0.0373163

>  <SCORE.RESTR>
0

>  <SCORE.RESTR.CAVITY>
0

>  <SCORE.RESTR.norm>
0

>  <SCORE.SYSTEM>
-1.59101

>  <SCORE.SYSTEM.CONST>
0

>  <SCORE.SYSTEM.DIHEDRAL>
0.657622

>  <SCORE.SYSTEM.VDW>
-1.91982

>  <SCORE.SYSTEM.norm>
-0.0883895

>  <SCORE.heavy>
18

>  <SCORE.norm>
-0.791644

$$$$
FLP.pdb
  rDOCK(R)          3D
libRbt.so/2013.1/901 2013/11/27
 19 20  0  0  0  0  0  0  0  0999 V2000
   27.1404   23.5442   13.5520 C   0  0  0  0  0  0
   26.0748   23.1961   14.4113 C   0  0  0  0  0  0
   24.7691   23.1891   13.9311 C   0  0  0  0  0  0
   24.5315   23.5286   12.5981 C   0  0  0  0  0  0
   25.5992   23.8736   11.7475 C   0  0  0  0  0  0
   26.9038   23.8801   12.2305 C   0  0  0  0  0  0
   23.6109   22.8514   14.8455 C   0  0  0  0  0  0
   23.6328   21.6993   15.6686 C   0  0  0  0  0  0
   22.5314   21.4231   16.5350 C   0  0  0  0  0  0
   21.4111   22.3235   16.5584 C   0  0  0  0  0  0
   21.4094   23.4532   15.7492 C   0  0  0  0  0  0
   22.4853   23.7222   14.8974 C   0  0  0  0  0  0
   20.1763   22.0229   17.3830 C   0  0  0  0  0  0
   20.5148   21.0758   18.5319 C   0  0  0  0  0  0
   19.1366   21.3871   16.4608 C   0  0  0  0  0  0
   18.8183   20.2329   16.6070 O   0  0  0  0  0  0
   18.6028   22.0734   15.4851 O   0  0  0  0  0  0
   22.4364   24.8243   14.1027 F   0  0  0  0  0  0
   17.9660   21.6744   14.9254 H   0  0  0  0  0  0
  1  2  2  0  0  0
  2  3  1  0  0  0
  3  7  1  0  0  0
  4  3  2  0  0  0
  5  4  1  0  0  0
  6  5  2  0  0  0
  6  1  1  0  0  0
  7  8  2  0  0  0
  7 12  1  0  0  0
  8  9  1  0  0  0
  9 10  2  0  0  0
 10 13  1  0  0  0
 11 10  1  0  0  0
 12 11  2  0  0  0
 13 14  1  0  0  0
 15 17  1  0  0  0
 15 13  1  0  0  0
 16 15  2  0  0  0
 17 19  1  0  0  0
 18 12  1  0  0  0
M  END
>  <CHROM.0>
-178.51920980,-62.50634048,3.50409136,142.52904236,169.57589094,-57.40691521
-60.37810297

>  <CHROM.1>
-49.46755723,23.74049949,-179.98361000,112.57476707,22.63036955,22.68075963
15.09444054,-0.61585429,-0.06354550,2.19980627

>  <FORMUL>
      FLP    C15 H13 F1 O2

>  <HET>
 FLP  A 701      18

>  <HETNAM>
     FLP FLURBIPROFEN

>  <Name>
FLP.pdb

>  <RI>
0

>  <Rbt.Current_Directory>
/home/malgorzata/Desktop/rDOCK_IFD/Wyniki/4_COX2/IFD

>  <Rbt.Executable>
rbdock ($Id: //depot/dev/client3/rdock/2013.1/src/exe/rbdock.cxx#4 $)

>  <Rbt.Library>
libRbt.so (2013.1, Build901 2013/11/27)

>  <Rbt.Parameter_File>
/home/malgorzata/Desktop/rDock_2013.1_src/data/scripts/hard_docking.prm

>  <Rbt.Receptor>
cavity.prm

>  <SCORE>
-16.5946

>  <SCORE.INTER>
-14.0733

>  <SCORE.INTER.CONST>
1

>  <SCORE.INTER.POLAR>
-1.07703

>  <SCORE.INTER.REPUL>
0.103572

>  <SCORE.INTER.ROT>
3

>  <SCORE.INTER.VDW>
-19.3293

>  <SCORE.INTER.norm>
-0.781852

>  <SCORE.INTRA>
0.643677

>  <SCORE.INTRA.DIHEDRAL>
-1.05742

>  <SCORE.INTRA.DIHEDRAL.0>
5.47211

>  <SCORE.INTRA.POLAR>
0

>  <SCORE.INTRA.POLAR.0>
0

>  <SCORE.INTRA.REPUL>
0

>  <SCORE.INTRA.REPUL.0>
0

>  <SCORE.INTRA.VDW>
1.17239

>  <SCORE.INTRA.VDW.0>
0.722234

>  <SCORE.INTRA.norm>
0.0357598

>  <SCORE.RESTR>
0

>  <SCORE.RESTR.CAVITY>
0

>  <SCORE.RESTR.norm>
0

>  <SCORE.SYSTEM>
-3.16498

>  <SCORE.SYSTEM.CONST>
0

>  <SCORE.SYSTEM.DIHEDRAL>
0.666442

>  <SCORE.SYSTEM.POLAR>
-0.507232

>  <SCORE.SYSTEM.REPUL>
0.0411269

>  <SCORE.SYSTEM.VDW>
-1.97925

>  <SCORE.SYSTEM.norm>
-0.175832

>  <SCORE.heavy>
18

>  <SCORE.norm>
-0.921924

$$$$
FLP.pdb
  rDOCK(R)          3D
libRbt.so/2013.1/901 2013/11/27
 19 20  0  0  0  0  0  0  0  0999 V2000
   21.4937   19.6209   18.1538 C   0  0  0  0  0  0
   22.4836   20.2853   17.3965 C   0  0  0  0  0  0
   22.2091   21.5261   16.8305 C   0  0  0  0  0  0
   20.9504   22.0987   17.0218 C   0  0  0  0  0  0
   19.9691   21.4306   17.7788 C   0  0  0  0  0  0
   20.2464   20.1898   18.3433 C   0  0  0  0  0  0
   23.2458   22.2379   15.9878 C   0  0  0  0  0  0
   24.5946   21.8078   15.9593 C   0  0  0  0  0  0
   25.5416   22.4902   15.1360 C   0  0  0  0  0  0
   25.1087   23.6096   14.3447 C   0  0  0  0  0  0
   23.7796   24.0138   14.3795 C   0  0  0  0  0  0
   22.8527   23.3490   15.1885 C   0  0  0  0  0  0
   26.0925   24.4284   13.5344 C   0  0  0  0  0  0
   26.6574   23.6026   12.3810 C   0  0  0  0  0  0
   27.2174   24.8736   14.4683 C   0  0  0  0  0  0
   27.5487   24.1782   15.3966 O   0  0  0  0  0  0
   27.8128   26.0237   14.2934 O   0  0  0  0  0  0
   21.5666   23.7890   15.2147 F   0  0  0  0  0  0
   27.5084   26.6130   13.6316 H   0  0  0  0  0  0
  1  2  2  0  0  0
  2  3  1  0  0  0
  3  7  1  0  0  0
  4  3  2  0  0  0
  5  4  1  0  0  0
  6  5  2  0  0  0
  6  1  1  0  0  0
  7  8  2  0  0  0
  7 12  1  0  0  0
  8  9  1  0  0  0
  9 10  2  0  0  0
 10 13  1  0  0  0
 11 10  1  0  0  0
 12 11  2  0  0  0
 13 14  1  0  0  0
 15 17  1  0  0  0
 15 13  1  0  0  0
 16 15  2  0  0  0
 17 19  1  0  0  0
 18 12  1  0  0  0
M  END
>  <CHROM.0>
178.40267677,-171.75260203,-140.71167467,-6.11491363,-2.78179164,-59.29313837
-60.37810297

>  <CHROM.1>
-12.47611558,67.98871443,4.66814764,31.46142383,23.92394405,22.85112141,15.59609756
-2.43377747,0.07132868,-0.67675714

>  <FORMUL>
      FLP    C15 H13 F1 O2

>  <HET>
 FLP  A 701      18

>  <HETNAM>
     FLP FLURBIPROFEN

>  <Name>
FLP.pdb

>  <RI>
0

>  <Rbt.Current_Directory>
/home/malgorzata/Desktop/rDOCK_IFD/Wyniki/4_COX2/IFD

>  <Rbt.Executable>
rbdock ($Id: //depot/dev/client3/rdock/2013.1/src/exe/rbdock.cxx#4 $)

>  <Rbt.Library>
libRbt.so (2013.1, Build901 2013/11/27)

>  <Rbt.Parameter_File>
/home/malgorzata/Desktop/rDock_2013.1_src/data/scripts/hard_docking.prm

>  <Rbt.Receptor>
cavity.prm

>  <SCORE>
-15.9857

>  <SCORE.INTER>
-14.0662

>  <SCORE.INTER.CONST>
1

>  <SCORE.INTER.POLAR>
-1.51896

>  <SCORE.INTER.REPUL>
0

>  <SCORE.INTER.ROT>
3

>  <SCORE.INTER.VDW>
-17.3017

>  <SCORE.INTER.norm>
-0.781454

>  <SCORE.INTRA>
-0.243625

>  <SCORE.INTRA.DIHEDRAL>
-2.68445

>  <SCORE.INTRA.DIHEDRAL.0>
5.47211

>  <SCORE.INTRA.POLAR>
0

>  <SCORE.INTRA.POLAR.0>
0

>  <SCORE.INTRA.REPUL>
0

>  <SCORE.INTRA.REPUL.0>
0

>  <SCORE.INTRA.VDW>
1.0986

>  <SCORE.INTRA.VDW.0>
0.722234

>  <SCORE.INTRA.norm>
-0.0135347

>  <SCORE.RESTR>
0

>  <SCORE.RESTR.CAVITY>
0

>  <SCORE.RESTR.norm>
0

>  <SCORE.SYSTEM>
-1.67586

>  <SCORE.SYSTEM.CONST>
0

>  <SCORE.SYSTEM.DIHEDRAL>
2.54546

>  <SCORE.SYSTEM.POLAR>
-0.499829

>  <SCORE.SYSTEM.REPUL>
0.0425314

>  <SCORE.SYSTEM.VDW>
-1.46183

>  <SCORE.SYSTEM.norm>
-0.0931035

>  <SCORE.heavy>
18

>  <SCORE.norm>
-0.888092

$$$$
FLP.pdb
  rDOCK(R)          3D
libRbt.so/2013.1/901 2013/11/27
 19 20  0  0  0  0  0  0  0  0999 V2000
   24.2132   20.0877   18.2842 C   0  0  0  0  0  0
   24.0826   20.8861   17.1264 C   0  0  0  0  0  0
   25.2174   21.3848   16.4948 C   0  0  0  0  0  0
   26.4761   21.0856   17.0192 C   0  0  0  0  0  0
   26.5981   20.2882   18.1732 C   0  0  0  0  0  0
   25.4616   19.7913   18.8029 C   0  0  0  0  0  0
   25.0961   22.2698   15.2726 C   0  0  0  0  0  0
   24.0865   22.0543   14.3034 C   0  0  0  0  0  0
   23.9884   22.9223   13.1733 C   0  0  0  0  0  0
   24.9213   24.0072   13.0361 C   0  0  0  0  0  0
   25.9015   24.2084   14.0004 C   0  0  0  0  0  0
   26.0010   23.3565   15.1049 C   0  0  0  0  0  0
   24.9235   24.8931   11.8071 C   0  0  0  0  0  0
   23.5788   25.5994   11.6513 C   0  0  0  0  0  0
   25.2031   24.0113   10.5906 C   0  0  0  0  0  0
   26.2083   24.1692    9.9428 O   0  0  0  0  0  0
   24.3457   23.0982   10.2182 O   0  0  0  0  0  0
   26.9885   23.5705   16.0146 F   0  0  0  0  0  0
   23.5494   22.9798   10.6977 H   0  0  0  0  0  0
  1  2  2  0  0  0
  2  3  1  0  0  0
  3  7  1  0  0  0
  4  3  2  0  0  0
  5  4  1  0  0  0
  6  5  2  0  0  0
  6  1  1  0  0  0
  7  8  2  0  0  0
  7 12  1  0  0  0
  8  9  1  0  0  0
  9 10  2  0  0  0
 10 13  1  0  0  0
 11 10  1  0  0  0
 12 11  2  0  0  0
 13 14  1  0  0  0
 15 17  1  0  0  0
 15 13  1  0  0  0
 16 15  2  0  0  0
 17 19  1  0  0  0
 18 12  1  0  0  0
M  END
>  <CHROM.0>
-179.81204133,-61.97439608,-140.12441865,-92.89335932,167.86459684,-58.86087019
-60.37810297

>  <CHROM.1>
-36.32547998,60.34555162,0.08836976,-115.82179409,25.20721948,22.71403372
14.39912013,1.47689528,0.54820912,2.11068689

>  <FORMUL>
      FLP    C15 H13 F1 O2

>  <HET>
 FLP  A 701      18

>  <HETNAM>
     FLP FLURBIPROFEN

>  <Name>
FLP.pdb

>  <RI>
0

>  <Rbt.Current_Directory>
/home/malgorzata/Desktop/rDOCK_IFD/Wyniki/4_COX2/IFD

>  <Rbt.Executable>
rbdock ($Id: //depot/dev/client3/rdock/2013.1/src/exe/rbdock.cxx#4 $)

>  <Rbt.Library>
libRbt.so (2013.1, Build901 2013/11/27)

>  <Rbt.Parameter_File>
/home/malgorzata/Desktop/rDock_2013.1_src/data/scripts/hard_docking.prm

>  <Rbt.Receptor>
cavity.prm

>  <SCORE>
-12.0189

>  <SCORE.INTER>
-7.64352

>  <SCORE.INTER.CONST>
1

>  <SCORE.INTER.POLAR>
0

>  <SCORE.INTER.REPUL>
0

>  <SCORE.INTER.ROT>
3

>  <SCORE.INTER.VDW>
-16.0435

>  <SCORE.INTER.norm>
-0.42464

>  <SCORE.INTRA>
-1.97435

>  <SCORE.INTRA.DIHEDRAL>
-2.25968

>  <SCORE.INTRA.DIHEDRAL.0>
5.47211

>  <SCORE.INTRA.POLAR>
0

>  <SCORE.INTRA.POLAR.0>
0

>  <SCORE.INTRA.REPUL>
0

>  <SCORE.INTRA.REPUL.0>
0

>  <SCORE.INTRA.VDW>
-0.844506

>  <SCORE.INTRA.VDW.0>
0.722234

>  <SCORE.INTRA.norm>
-0.109686

>  <SCORE.RESTR>
0

>  <SCORE.RESTR.CAVITY>
0

>  <SCORE.RESTR.norm>
0

>  <SCORE.SYSTEM>
-2.40101

>  <SCORE.SYSTEM.CONST>
0

>  <SCORE.SYSTEM.DIHEDRAL>
2.51766

>  <SCORE.SYSTEM.POLAR>
-0.501863

>  <SCORE.SYSTEM.REPUL>
0.0422091

>  <SCORE.SYSTEM.VDW>
-2.16456

>  <SCORE.SYSTEM.norm>
-0.13339

>  <SCORE.heavy>
18

>  <SCORE.norm>
-0.667716

$$$$
FLP.pdb
  rDOCK(R)          3D
libRbt.so/2013.1/901 2013/11/27
 19 20  0  0  0  0  0  0  0  0999 V2000
   28.9800   21.9978   17.2953 C   0  0  0  0  0  0
   27.6415   21.6445   17.5752 C   0  0  0  0  0  0
   26.6165   22.0973   16.7507 C   0  0  0  0  0  0
   26.9299   22.8994   15.6519 C   0  0  0  0  0  0
   28.2669   23.2465   15.3789 C   0  0  0  0  0  0
   29.2897   22.7926   16.2053 C   0  0  0  0  0  0
   25.1729   21.7569   17.0538 C   0  0  0  0  0  0
   24.1254   22.6661   16.7685 C   0  0  0  0  0  0
   22.7726   22.3029   17.0481 C   0  0  0  0  0  0
   22.4934   21.0132   17.6182 C   0  0  0  0  0  0
   23.5330   20.1306   17.8852 C   0  0  0  0  0  0
   24.8582   20.4869   17.6158 C   0  0  0  0  0  0
   21.0884   20.6201   18.0263 C   0  0  0  0  0  0
   21.0398   20.2631   19.5100 C   0  0  0  0  0  0
   20.6694   19.4198   17.1783 C   0  0  0  0  0  0
   19.8754   19.5565   16.2805 O   0  0  0  0  0  0
   21.1397   18.2274   17.4326 O   0  0  0  0  0  0
   25.8504   19.6062   17.9135 F   0  0  0  0  0  0
   21.7566   18.1054   18.1273 H   0  0  0  0  0  0
  1  2  2  0  0  0
  2  3  1  0  0  0
  3  7  1  0  0  0
  4  3  2  0  0  0
  5  4  1  0  0  0
  6  5  2  0  0  0
  6  1  1  0  0  0
  7  8  2  0  0  0
  7 12  1  0  0  0
  8  9  1  0  0  0
  9 10  2  0  0  0
 10 13  1  0  0  0
 11 10  1  0  0  0
 12 11  2  0  0  0
 13 14  1  0  0  0
 15 17  1  0  0  0
 15 13  1  0  0  0
 16 15  2  0  0  0
 17 19  1  0  0  0
 18 12  1  0  0  0
M  END
>  <CHROM.0>
2.83902666,-179.55844929,2.43490980,116.20541399,161.30570873,58.38922786
-60.37810297

>  <CHROM.1>
145.84958843,-121.55064985,-1.52917281,-105.89264711,24.37181916,21.04273001
17.20912875,-0.38216360,0.07562952,2.56587657

>  <FORMUL>
      FLP    C15 H13 F1 O2

>  <HET>
 FLP  A 701      18

>  <HETNAM>
     FLP FLURBIPROFEN

>  <Name>
FLP.pdb

>  <RI>
0

>  <Rbt.Current_Directory>
/home/malgorzata/Desktop/rDOCK_IFD/Wyniki/4_COX2/IFD

>  <Rbt.Executable>
rbdock ($Id: //depot/dev/client3/rdock/2013.1/src/exe/rbdock.cxx#4 $)

>  <Rbt.Library>
libRbt.so (2013.1, Build901 2013/11/27)

>  <Rbt.Parameter_File>
/home/malgorzata/Desktop/rDock_2013.1_src/data/scripts/hard_docking.prm

>  <Rbt.Receptor>
cavity.prm

>  <SCORE>
-14.4659

>  <SCORE.INTER>
-11.7847

>  <SCORE.INTER.CONST>
1

>  <SCORE.INTER.POLAR>
-1.26779

>  <SCORE.INTER.REPUL>
0.283115

>  <SCORE.INTER.ROT>
3

>  <SCORE.INTER.VDW>
-17.2898

>  <SCORE.INTER.norm>
-0.654708

>  <SCORE.INTRA>
-1.25988

>  <SCORE.INTRA.DIHEDRAL>
-2.26722

>  <SCORE.INTRA.DIHEDRAL.0>
5.47211

>  <SCORE.INTRA.POLAR>
0

>  <SCORE.INTRA.POLAR.0>
0

>  <SCORE.INTRA.REPUL>
0

>  <SCORE.INTRA.REPUL.0>
0

>  <SCORE.INTRA.VDW>
-0.126269

>  <SCORE.INTRA.VDW.0>
0.722234

>  <SCORE.INTRA.norm>
-0.0699932

>  <SCORE.RESTR>
0

>  <SCORE.RESTR.CAVITY>
0

>  <SCORE.RESTR.norm>
0

>  <SCORE.SYSTEM>
-1.42125

>  <SCORE.SYSTEM.CONST>
0

>  <SCORE.SYSTEM.DIHEDRAL>
0.932764

>  <SCORE.SYSTEM.VDW>
-1.88763

>  <SCORE.SYSTEM.norm>
-0.0789584

>  <SCORE.heavy>
18

>  <SCORE.norm>
-0.803659

$$$$
FLP.pdb
  rDOCK(R)          3D
libRbt.so/2013.1/901 2013/11/27
 19 20  0  0  0  0  0  0  0  0999 V2000
   15.8200   22.4668   21.1066 C   0  0  0  0  0  0
   17.0644   22.3911   20.4429 C   0  0  0  0  0  0
   17.3792   21.2695   19.6824 C   0  0  0  0  0  0
   16.4531   20.2294   19.5869 C   0  0  0  0  0  0
   15.2141   20.3126   20.2507 C   0  0  0  0  0  0
   14.9023   21.4352   21.0107 C   0  0  0  0  0  0
   18.7212   21.1556   18.9914 C   0  0  0  0  0  0
   18.9286   21.6799   17.6925 C   0  0  0  0  0  0
   20.2143   21.5734   17.0793 C   0  0  0  0  0  0
   21.2839   20.9318   17.7939 C   0  0  0  0  0  0
   21.0646   20.4291   19.0707 C   0  0  0  0  0  0
   19.8051   20.5291   19.6701 C   0  0  0  0  0  0
   22.6358   20.7037   17.1494 C   0  0  0  0  0  0
   23.6978   20.4282   18.2112 C   0  0  0  0  0  0
   22.9958   21.9571   16.3524 C   0  0  0  0  0  0
   23.1585   21.8934   15.1589 O   0  0  0  0  0  0
   23.1623   23.1048   16.9547 O   0  0  0  0  0  0
   19.6227   20.0036   20.9107 F   0  0  0  0  0  0
   23.0947   23.1585   17.8877 H   0  0  0  0  0  0
  1  2  2  0  0  0
  2  3  1  0  0  0
  3  7  1  0  0  0
  4  3  2  0  0  0
  5  4  1  0  0  0
  6  5  2  0  0  0
  6  1  1  0  0  0
  7  8  2  0  0  0
  7 12  1  0  0  0
  8  9  1  0  0  0
  9 10  2  0  0  0
 10 13  1  0  0  0
 11 10  1  0  0  0
 12 11  2  0  0  0
 13 14  1  0  0  0
 15 17  1  0  0  0
 15 13  1  0  0  0
 16 15  2  0  0  0
 17 19  1  0  0  0
 18 12  1  0  0  0
M  END
>  <CHROM.0>
-179.70462584,-62.47837502,4.18127698,69.27507963,173.69786056,-178.31891549
-60.37810297

>  <CHROM.1>
-87.66253459,162.08054444,2.43559589,-118.63792984,19.69063969,21.25245315
18.71384492,2.71438375,-0.27628161,2.21663880

>  <FORMUL>
      FLP    C15 H13 F1 O2

>  <HET>
 FLP  A 701      18

>  <HETNAM>
     FLP FLURBIPROFEN

>  <Name>
FLP.pdb

>  <RI>
0

>  <Rbt.Current_Directory>
/home/malgorzata/Desktop/rDOCK_IFD/Wyniki/4_COX2/IFD

>  <Rbt.Executable>
rbdock ($Id: //depot/dev/client3/rdock/2013.1/src/exe/rbdock.cxx#4 $)

>  <Rbt.Library>
libRbt.so (2013.1, Build901 2013/11/27)

>  <Rbt.Parameter_File>
/home/malgorzata/Desktop/rDock_2013.1_src/data/scripts/hard_docking.prm

>  <Rbt.Receptor>
cavity.prm

>  <SCORE>
-15.3333

>  <SCORE.INTER>
-15.0404

>  <SCORE.INTER.CONST>
1

>  <SCORE.INTER.POLAR>
0

>  <SCORE.INTER.REPUL>
0

>  <SCORE.INTER.ROT>
3

>  <SCORE.INTER.VDW>
-23.4404

>  <SCORE.INTER.norm>
-0.835576

>  <SCORE.INTRA>
1.38263

>  <SCORE.INTRA.DIHEDRAL>
0.973251

>  <SCORE.INTRA.DIHEDRAL.0>
5.47211

>  <SCORE.INTRA.POLAR>
0

>  <SCORE.INTRA.POLAR.0>
0

>  <SCORE.INTRA.REPUL>
0

>  <SCORE.INTRA.REPUL.0>
0

>  <SCORE.INTRA.VDW>
0.896004

>  <SCORE.INTRA.VDW.0>
0.722234

>  <SCORE.INTRA.norm>
0.0768127

>  <SCORE.RESTR>
0

>  <SCORE.RESTR.CAVITY>
0

>  <SCORE.RESTR.norm>
0

>  <SCORE.SYSTEM>
-1.67559

>  <SCORE.SYSTEM.CONST>
0

>  <SCORE.SYSTEM.DIHEDRAL>
0.510933

>  <SCORE.SYSTEM.REPUL>
0.0467774

>  <SCORE.SYSTEM.VDW>
-2.16495

>  <SCORE.SYSTEM.norm>
-0.0930886

>  <SCORE.heavy>
18

>  <SCORE.norm>
-0.851852

$$$$
FLP.pdb
  rDOCK(R)          3D
libRbt.so/2013.1/901 2013/11/27
 19 20  0  0  0  0  0  0  0  0999 V2000
   18.7813   22.2794   16.9215 C   0  0  0  0  0  0
   20.0180   22.4990   16.2755 C   0  0  0  0  0  0
   21.1941   22.0235   16.8465 C   0  0  0  0  0  0
   21.1325   21.3319   18.0575 C   0  0  0  0  0  0
   19.8957   21.1161   18.6949 C   0  0  0  0  0  0
   18.7213   21.5931   18.1218 C   0  0  0  0  0  0
   22.5323   22.2783   16.1861 C   0  0  0  0  0  0
   23.6207   21.3890   16.3583 C   0  0  0  0  0  0
   24.8627   21.6495   15.7028 C   0  0  0  0  0  0
   24.9897   22.8171   14.8739 C   0  0  0  0  0  0
   23.9091   23.6754   14.7104 C   0  0  0  0  0  0
   22.6941   23.4234   15.3552 C   0  0  0  0  0  0
   26.3133   23.1919   14.2392 C   0  0  0  0  0  0
   27.0424   24.2295   15.0896 C   0  0  0  0  0  0
   26.0265   23.7541   12.8474 C   0  0  0  0  0  0
   26.2879   23.1066   11.8638 O   0  0  0  0  0  0
   25.5249   24.9521   12.7029 O   0  0  0  0  0  0
   21.6673   24.2992   15.1905 F   0  0  0  0  0  0
   25.3089   25.4638   13.4576 H   0  0  0  0  0  0
  1  2  2  0  0  0
  2  3  1  0  0  0
  3  7  1  0  0  0
  4  3  2  0  0  0
  5  4  1  0  0  0
  6  5  2  0  0  0
  6  1  1  0  0  0
  7  8  2  0  0  0
  7 12  1  0  0  0
  8  9  1  0  0  0
  9 10  2  0  0  0
 10 13  1  0  0  0
 11 10  1  0  0  0
 12 11  2  0  0  0
 13 14  1  0  0  0
 15 17  1  0  0  0
 15 13  1  0  0  0
 16 15  2  0  0  0
 17 19  1  0  0  0
 18 12  1  0  0  0
M  END
>  <CHROM.0>
44.67646695,60.69577459,-140.78861865,-87.44371107,-0.05536162,178.72770443
-60.37810297

>  <CHROM.1>
-152.05896581,-96.46895575,-2.17603716,-107.16879167,23.13583089,22.84612293
15.46315069,2.53701629,-0.19586936,2.28257831

>  <FORMUL>
      FLP    C15 H13 F1 O2

>  <HET>
 FLP  A 701      18

>  <HETNAM>
     FLP FLURBIPROFEN

>  <Name>
FLP.pdb

>  <RI>
0

>  <Rbt.Current_Directory>
/home/malgorzata/Desktop/rDOCK_IFD/Wyniki/4_COX2/IFD

>  <Rbt.Executable>
rbdock ($Id: //depot/dev/client3/rdock/2013.1/src/exe/rbdock.cxx#4 $)

>  <Rbt.Library>
libRbt.so (2013.1, Build901 2013/11/27)

>  <Rbt.Parameter_File>
/home/malgorzata/Desktop/rDock_2013.1_src/data/scripts/hard_docking.prm

>  <Rbt.Receptor>
cavity.prm

>  <SCORE>
-13.2419

>  <SCORE.INTER>
-12.5433

>  <SCORE.INTER.CONST>
1

>  <SCORE.INTER.POLAR>
-0.741355

>  <SCORE.INTER.REPUL>
0

>  <SCORE.INTER.ROT>
3

>  <SCORE.INTER.VDW>
-18.4226

>  <SCORE.INTER.norm>
-0.696848

>  <SCORE.INTRA>
-1.15789

>  <SCORE.INTRA.DIHEDRAL>
-2.63851

>  <SCORE.INTRA.DIHEDRAL.0>
5.47211

>  <SCORE.INTRA.POLAR>
0

>  <SCORE.INTRA.POLAR.0>
0

>  <SCORE.INTRA.REPUL>
0

>  <SCORE.INTRA.REPUL.0>
0

>  <SCORE.INTRA.VDW>
0.161366

>  <SCORE.INTRA.VDW.0>
0.722234

>  <SCORE.INTRA.norm>
-0.0643273

>  <SCORE.RESTR>
0

>  <SCORE.RESTR.CAVITY>
0

>  <SCORE.RESTR.norm>
0

>  <SCORE.SYSTEM>
0.459268

>  <SCORE.SYSTEM.CONST>
0

>  <SCORE.SYSTEM.DIHEDRAL>
4.597

>  <SCORE.SYSTEM.REPUL>
0.0445606

>  <SCORE.SYSTEM.VDW>
-2.06203

>  <SCORE.SYSTEM.norm>
0.0255149

>  <SCORE.heavy>
18

>  <SCORE.norm>
-0.73566

$$$$
FLP.pdb
  rDOCK(R)          3D
libRbt.so/2013.1/901 2013/11/27
 19 20  0  0  0  0  0  0  0  0999 V2000
   23.7084   23.4545   10.3291 C   0  0  0  0  0  0
   23.7247   22.8792   11.6190 C   0  0  0  0  0  0
   23.6060   23.6903   12.7430 C   0  0  0  0  0  0
   23.4715   25.0698   12.5767 C   0  0  0  0  0  0
   23.4552   25.6357   11.2875 C   0  0  0  0  0  0
   23.5745   24.8222   10.1654 C   0  0  0  0  0  0
   23.6550   23.0956   14.1342 C   0  0  0  0  0  0
   22.8253   23.5817   15.1736 C   0  0  0  0  0  0
   22.8828   22.9825   16.4689 C   0  0  0  0  0  0
   23.7872   21.8891   16.6991 C   0  0  0  0  0  0
   24.5892   21.4201   15.6657 C   0  0  0  0  0  0
   24.5367   22.0090   14.3984 C   0  0  0  0  0  0
   23.9590   21.2864   18.0783 C   0  0  0  0  0  0
   25.4397   21.1590   18.4285 C   0  0  0  0  0  0
   23.2941   19.9104   18.0779 C   0  0  0  0  0  0
   22.2272   19.7500   18.6174 O   0  0  0  0  0  0
   23.8842   18.8853   17.5224 O   0  0  0  0  0  0
   25.3544   21.5384   13.4193 F   0  0  0  0  0  0
   24.7149   18.9937   17.1026 H   0  0  0  0  0  0
  1  2  2  0  0  0
  2  3  1  0  0  0
  3  7  1  0  0  0
  4  3  2  0  0  0
  5  4  1  0  0  0
  6  5  2  0  0  0
  6  1  1  0  0  0
  7  8  2  0  0  0
  7 12  1  0  0  0
  8  9  1  0  0  0
  9 10  2  0  0  0
 10 13  1  0  0  0
 11 10  1  0  0  0
 12 11  2  0  0  0
 13 14  1  0  0  0
 15 17  1  0  0  0
 15 13  1  0  0  0
 16 15  2  0  0  0
 17 19  1  0  0  0
 18 12  1  0  0  0
M  END
>  <CHROM.0>
0.56657948,-179.31636602,1.89724214,-86.38988278,168.24422874,-59.19073017
-60.37810297

>  <CHROM.1>
-141.86135408,-131.26563346,-1.33046294,-104.38861513,23.81504526,22.27767383
14.82393537,-1.58037883,-1.00980795,2.10345362

>  <FORMUL>
      FLP    C15 H13 F1 O2

>  <HET>
 FLP  A 701      18

>  <HETNAM>
     FLP FLURBIPROFEN

>  <Name>
FLP.pdb

>  <RI>
0

>  <Rbt.Current_Directory>
/home/malgorzata/Desktop/rDOCK_IFD/Wyniki/4_COX2/IFD

>  <Rbt.Executable>
rbdock ($Id: //depot/dev/client3/rdock/2013.1/src/exe/rbdock.cxx#4 $)

>  <Rbt.Library>
libRbt.so (2013.1, Build901 2013/11/27)

>  <Rbt.Parameter_File>
/home/malgorzata/Desktop/rDock_2013.1_src/data/scripts/hard_docking.prm

>  <Rbt.Receptor>
cavity.prm

>  <SCORE>
-14.9196

>  <SCORE.INTER>
-10.7831

>  <SCORE.INTER.CONST>
1

>  <SCORE.INTER.POLAR>
0

>  <SCORE.INTER.REPUL>
0

>  <SCORE.INTER.ROT>
3

>  <SCORE.INTER.VDW>
-19.1831

>  <SCORE.INTER.norm>
-0.59906

>  <SCORE.INTRA>
-0.787001

>  <SCORE.INTRA.DIHEDRAL>
-1.91125

>  <SCORE.INTRA.DIHEDRAL.0>
5.47211

>  <SCORE.INTRA.POLAR>
0

>  <SCORE.INTRA.POLAR.0>
0

>  <SCORE.INTRA.REPUL>
0

>  <SCORE.INTRA.REPUL.0>
0

>  <SCORE.INTRA.VDW>
0.168623

>  <SCORE.INTRA.VDW.0>
0.722234

>  <SCORE.INTRA.norm>
-0.0437223

>  <SCORE.RESTR>
0

>  <SCORE.RESTR.CAVITY>
0

>  <SCORE.RESTR.norm>
0

>  <SCORE.SYSTEM>
-3.34954

>  <SCORE.SYSTEM.CONST>
0

>  <SCORE.SYSTEM.DIHEDRAL>
0.643337

>  <SCORE.SYSTEM.POLAR>
-0.500328

>  <SCORE.SYSTEM.REPUL>
0.042455

>  <SCORE.SYSTEM.VDW>
-2.18237

>  <SCORE.SYSTEM.norm>
-0.186086

>  <SCORE.heavy>
18

>  <SCORE.norm>
-0.828868

$$$$
FLP.pdb
  rDOCK(R)          3D
libRbt.so/2013.1/901 2013/11/27
 19 20  0  0  0  0  0  0  0  0999 V2000
   20.6466   20.4516   19.4554 C   0  0  0  0  0  0
   21.5267   20.9070   18.4491 C   0  0  0  0  0  0
   21.0441   21.6930   17.4076 C   0  0  0  0  0  0
   19.6877   22.0213   17.3739 C   0  0  0  0  0  0
   18.8167   21.5642   18.3813 C   0  0  0  0  0  0
   19.3021   20.7781   19.4213 C   0  0  0  0  0  0
   21.9655   22.1625   16.3021 C   0  0  0  0  0  0
   23.1854   21.4981   16.0270 C   0  0  0  0  0  0
   24.0202   21.9558   14.9622 C   0  0  0  0  0  0
   23.6072   23.0901   14.1818 C   0  0  0  0  0  0
   22.4035   23.7258   14.4610 C   0  0  0  0  0  0
   21.5876   23.2812   15.5061 C   0  0  0  0  0  0
   24.5025   23.6759   13.1092 C   0  0  0  0  0  0
   24.8656   22.6144   12.0735 C   0  0  0  0  0  0
   25.7643   24.2085   13.7871 C   0  0  0  0  0  0
   26.1730   25.3139   13.5298 O   0  0  0  0  0  0
   26.4332   23.4651   14.6284 O   0  0  0  0  0  0
   20.4290   23.9440   15.7646 F   0  0  0  0  0  0
   27.2070   23.8002   15.0371 H   0  0  0  0  0  0
  1  2  2  0  0  0
  2  3  1  0  0  0
  3  7  1  0  0  0
  4  3  2  0  0  0
  5  4  1  0  0  0
  6  5  2  0  0  0
  6  1  1  0  0  0
  7  8  2  0  0  0
  7 12  1  0  0  0
  8  9  1  0  0  0
  9 10  2  0  0  0
 10 13  1  0  0  0
 11 10  1  0  0  0
 12 11  2  0  0  0
 13 14  1  0  0  0
 15 17  1  0  0  0
 15 13  1  0  0  0
 16 15  2  0  0  0
 17 19  1  0  0  0
 18 12  1  0  0  0
M  END
>  <CHROM.0>
36.80710383,179.54179191,3.77007538,-83.22196410,0.07531383,-58.57540903
-60.37810297

>  <CHROM.1>
21.15764813,57.33358505,179.83943815,-132.02826077,22.62622920,22.65176368
15.75317367,-2.37740765,0.21934914,-0.87595976

>  <FORMUL>
      FLP    C15 H13 F1 O2

>  <HET>
 FLP  A 701      18

>  <HETNAM>
     FLP FLURBIPROFEN

>  <Name>
FLP.pdb

>  <RI>
0

>  <Rbt.Current_Directory>
/home/malgorzata/Desktop/rDOCK_IFD/Wyniki/4_COX2/IFD

>  <Rbt.Executable>
rbdock ($Id: //depot/dev/client3/rdock/2013.1/src/exe/rbdock.cxx#4 $)

>  <Rbt.Library>
libRbt.so (2013.1, Build901 2013/11/27)

>  <Rbt.Parameter_File>
/home/malgorzata/Desktop/rDock_2013.1_src/data/scripts/hard_docking.prm

>  <Rbt.Receptor>
cavity.prm

>  <SCORE>
-18.3876

>  <SCORE.INTER>
-14.0336

>  <SCORE.INTER.CONST>
1

>  <SCORE.INTER.POLAR>
-0.727597

>  <SCORE.INTER.REPUL>
0

>  <SCORE.INTER.ROT>
3

>  <SCORE.INTER.VDW>
-19.9597

>  <SCORE.INTER.norm>
-0.779642

>  <SCORE.INTRA>
-1.92815

>  <SCORE.INTRA.DIHEDRAL>
-3.1295

>  <SCORE.INTRA.DIHEDRAL.0>
5.47211

>  <SCORE.INTRA.POLAR>
0

>  <SCORE.INTRA.POLAR.0>
0

>  <SCORE.INTRA.REPUL>
0

>  <SCORE.INTRA.REPUL.0>
0

>  <SCORE.INTRA.VDW>
-0.3634

>  <SCORE.INTRA.VDW.0>
0.722234

>  <SCORE.INTRA.norm>
-0.10712

>  <SCORE.RESTR>
0

>  <SCORE.RESTR.CAVITY>
0

>  <SCORE.RESTR.norm>
0

>  <SCORE.SYSTEM>
-2.42591

>  <SCORE.SYSTEM.CONST>
0

>  <SCORE.SYSTEM.DIHEDRAL>
2.1662

>  <SCORE.SYSTEM.POLAR>
-0.503098

>  <SCORE.SYSTEM.REPUL>
0.0419963

>  <SCORE.SYSTEM.VDW>
-2.00845

>  <SCORE.SYSTEM.norm>
-0.134773

>  <SCORE.heavy>
18

>  <SCORE.norm>
-1.02153

$$$$
