REMARK  6 active torsions:
REMARK  status: ('A' for Active; 'I' for Inactive)
REMARK    1  A    between atoms: C1_1  and  S_7 
REMARK    2  A    between atoms: S_7  and  C7_8 
REMARK    3  A    between atoms: C12_9  and  CF_10 
REMARK    4  A    between atoms: N8_15  and  CA_20 
REMARK    5  A    between atoms: CA_20  and  OB_21 
REMARK    6  A    between atoms: OB_21  and  CC_22 
ROOT
HETATM    1  C7  612 A 999       0.443 -35.788  26.454  1.00 18.06     0.090 A 
HETATM    2  C12 612 A 999       1.252 -34.752  26.900  1.00 14.61     0.047 A 
HETATM    3  C11 612 A 999       2.611 -34.635  26.399  1.00 18.65     0.258 A 
HETATM    4  O11 612 A 999       3.369 -33.722  26.699  1.00 19.51    -0.267 OA
HETATM    5  N8  612 A 999       0.933 -36.741  25.540  1.00 19.76    -0.271 N 
HETATM    6  C9  612 A 999       2.249 -36.682  25.039  1.00 23.47     0.332 A 
HETATM    7  O9  612 A 999       2.699 -37.517  24.257  1.00 22.87    -0.246 OA
HETATM    8  N10 612 A 999       3.015 -35.619  25.492  1.00 16.93    -0.275 N 
ATOM      9  H10 612 A 999       3.966 -35.547  25.129  1.00  0.00     0.173 HD
ENDROOT
BRANCH   1  10
HETATM   10  S   612 A 999      -1.335 -35.915  26.983  1.00 32.26    -0.106 SA
BRANCH  10  11
HETATM   11  C1  612 A 999      -2.223 -34.435  26.380  1.00 32.95     0.054 C 
HETATM   12  C2  612 A 999      -2.232 -34.562  24.863  1.00 34.65     0.015 C 
HETATM   13  C3  612 A 999      -3.070 -33.478  24.237  1.00 27.76     0.001 C 
HETATM   14  C4  612 A 999      -4.493 -33.510  24.787  1.00 29.08     0.000 C 
HETATM   15  C5  612 A 999      -4.478 -33.367  26.303  1.00 28.74     0.001 C 
HETATM   16  C6  612 A 999      -3.645 -34.469  26.921  1.00 30.82     0.015 C 
ENDBRANCH  10  11
ENDBRANCH   1  10
BRANCH   2  17
HETATM   17  CF  612 A 999       0.896 -33.807  28.063  1.00 10.07     0.019 C 
HETATM   18  CH  612 A 999       0.365 -32.458  27.638  1.00 14.61     0.015 C 
HETATM   19  CI  612 A 999       1.937 -33.743  29.128  1.00 17.14     0.015 C 
ENDBRANCH   2  17
BRANCH   5  20
HETATM   20  CA  612 A 999       0.116 -37.894  25.086  1.00 21.69     0.304 C 
BRANCH  20  21
HETATM   21  OB  612 A 999      -0.951 -37.483  24.238  1.00 29.12    -0.372 OA
BRANCH  21  22
HETATM   22  CC  612 A 999      -0.501 -37.249  22.900  1.00 25.28     0.165 C 
HETATM   23  CD  612 A 999      -1.232 -36.080  22.286  1.00 18.82     0.033 C 
ENDBRANCH  21  22
ENDBRANCH  20  21
ENDBRANCH   5  20
TORSDOF 6
