REMARK  6 active torsions:
REMARK  status: ('A' for Active; 'I' for Inactive)
REMARK    1  A    between atoms: C1_1  and  S_7 
REMARK    2  A    between atoms: S_7  and  C7_8 
REMARK    3  A    between atoms: C12_9  and  CF_10 
REMARK    4  A    between atoms: N8_15  and  CA_20 
REMARK    5  A    between atoms: CA_20  and  OB_21 
REMARK    6  A    between atoms: OB_21  and  CC_22 
ROOT
HETATM    1  C7  612 A 999       1.466 -36.941  23.883  1.00 18.06     0.090 A 
HETATM    2  C12 612 A 999       2.757 -36.750  23.410  1.00 14.61     0.047 A 
HETATM    3  C11 612 A 999       2.990 -36.648  21.979  1.00 18.65     0.258 A 
HETATM    4  O11 612 A 999       4.087 -36.426  21.484  1.00 19.51    -0.267 OA
HETATM    5  N8  612 A 999       0.384 -37.061  22.990  1.00 19.76    -0.271 N 
HETATM    6  C9  612 A 999       0.560 -36.987  21.594  1.00 23.47     0.332 A 
HETATM    7  O9  612 A 999      -0.371 -37.111  20.800  1.00 22.87    -0.246 OA
HETATM    8  N10 612 A 999       1.861 -36.773  21.166  1.00 16.93    -0.275 N 
ATOM      9  H10 612 A 999       2.009 -36.700  20.159  1.00  0.00     0.173 HD
ENDROOT
BRANCH   1  10
HETATM   10  S   612 A 999       1.105 -36.968  25.707  1.00 32.26    -0.106 SA
BRANCH  10  11
HETATM   11  C1  612 A 999       0.841 -35.249  26.268  1.00 32.95     0.054 C 
HETATM   12  C2  612 A 999      -0.561 -35.229  26.859  1.00 34.65     0.015 C 
HETATM   13  C3  612 A 999      -0.856 -33.899  27.502  1.00 27.76     0.001 C 
HETATM   14  C4  612 A 999       0.182 -33.575  28.572  1.00 29.08     0.000 C 
HETATM   15  C5  612 A 999       1.581 -33.581  27.971  1.00 28.74     0.001 C 
HETATM   16  C6  612 A 999       1.871 -34.926  27.341  1.00 30.82     0.015 C 
ENDBRANCH  10  11
ENDBRANCH   1  10
BRANCH   2  17
HETATM   17  CF  612 A 999       4.026 -36.842  24.278  1.00 10.07     0.019 C 
HETATM   18  CH  612 A 999       4.809 -35.555  24.384  1.00 14.61     0.015 C 
HETATM   19  CI  612 A 999       4.863 -38.043  23.997  1.00 17.14     0.015 C 
ENDBRANCH   2  17
BRANCH   5  20
HETATM   20  CA  612 A 999      -1.001 -37.323  23.457  1.00 21.69     0.304 C 
BRANCH  20  21
HETATM   21  OB  612 A 999      -1.660 -36.125  23.853  1.00 29.12    -0.372 OA
BRANCH  21  22
HETATM   22  CC  612 A 999      -2.340 -35.509  22.755  1.00 25.28     0.165 C 
HETATM   23  CD  612 A 999      -2.620 -34.055  23.044  1.00 18.82     0.033 C 
ENDBRANCH  21  22
ENDBRANCH  20  21
ENDBRANCH   5  20
TORSDOF 6
