REMARK  6 active torsions:
REMARK  status: ('A' for Active; 'I' for Inactive)
REMARK    1  A    between atoms: C1_1  and  S_7 
REMARK    2  A    between atoms: S_7  and  C7_8 
REMARK    3  A    between atoms: C12_9  and  CF_10 
REMARK    4  A    between atoms: N8_15  and  CA_20 
REMARK    5  A    between atoms: CA_20  and  OB_21 
REMARK    6  A    between atoms: OB_21  and  CC_22 
ROOT
HETATM    1  C7  612 A 999       0.232 -35.530  26.702  1.00 18.06     0.090 A 
HETATM    2  C12 612 A 999       1.198 -34.549  26.880  1.00 14.61     0.047 A 
HETATM    3  C11 612 A 999       2.501 -34.702  26.255  1.00 18.65     0.258 A 
HETATM    4  O11 612 A 999       3.387 -33.859  26.318  1.00 19.51    -0.267 OA
HETATM    5  N8  612 A 999       0.510 -36.683  25.943  1.00 19.76    -0.271 N 
HETATM    6  C9  612 A 999       1.763 -36.887  25.332  1.00 23.47     0.332 A 
HETATM    7  O9  612 A 999       2.029 -37.897  24.684  1.00 22.87    -0.246 OA
HETATM    8  N10 612 A 999       2.691 -35.872  25.516  1.00 16.93    -0.275 N 
ATOM      9  H10 612 A 999       3.600 -35.992  25.069  1.00  0.00     0.173 HD
ENDROOT
BRANCH   1  10
HETATM   10  S   612 A 999      -1.483 -35.326  27.390  1.00 32.26    -0.106 SA
BRANCH  10  11
HETATM   11  C1  612 A 999      -2.631 -35.031  25.998  1.00 32.95     0.054 C 
HETATM   12  C2  612 A 999      -3.730 -34.144  26.564  1.00 34.65     0.015 C 
HETATM   13  C3  612 A 999      -4.672 -33.694  25.478  1.00 27.76     0.001 C 
HETATM   14  C4  612 A 999      -3.914 -32.968  24.372  1.00 29.08     0.000 C 
HETATM   15  C5  612 A 999      -2.826 -33.867  23.798  1.00 28.74     0.001 C 
HETATM   16  C6  612 A 999      -1.878 -34.299  24.895  1.00 30.82     0.015 C 
ENDBRANCH  10  11
ENDBRANCH   1  10
BRANCH   2  17
HETATM   17  CF  612 A 999       1.078 -33.378  27.874  1.00 10.07     0.019 C 
HETATM   18  CH  612 A 999       1.555 -33.690  29.273  1.00 14.61     0.015 C 
HETATM   19  CI  612 A 999      -0.234 -32.673  27.820  1.00 17.14     0.015 C 
ENDBRANCH   2  17
BRANCH   5  20
HETATM   20  CA  612 A 999      -0.479 -37.778  25.778  1.00 21.69     0.304 C 
BRANCH  20  21
HETATM   21  OB  612 A 999      -1.497 -37.435  24.845  1.00 29.12    -0.372 OA
BRANCH  21  22
HETATM   22  CC  612 A 999      -1.137 -37.806  23.511  1.00 25.28     0.165 C 
HETATM   23  CD  612 A 999      -0.728 -36.596  22.709  1.00 18.82     0.033 C 
ENDBRANCH  21  22
ENDBRANCH  20  21
ENDBRANCH   5  20
TORSDOF 6
