BRL.pdb
 OpenBabel12012000063D

 44 46  0  0  1  0  0  0  0  0999 V2000
   52.9760  -36.0350   21.8510 S   0  0  0  0  0  0  0  0  0  0  0  0
   55.0240  -35.8750   23.5610 O   0  0  0  0  0  0  0  0  0  0  0  0
   55.2870  -33.7310   19.6440 O   0  0  0  0  0  0  0  0  0  0  0  0
   47.1400  -36.1210   18.3160 O   0  0  0  0  0  0  0  0  0  0  0  0
   55.3240  -34.7160   21.6920 N   0  0  0  0  0  0  0  0  0  0  0  0
   46.1500  -38.6850   17.0350 N   0  0  0  0  0  0  0  0  0  0  0  0
   47.3640  -40.9920   16.9650 N   0  0  0  0  0  0  0  0  0  0  0  0
   54.6030  -35.5160   22.4620 C   0  0  0  0  0  0  0  0  0  0  0  0
   54.7320  -34.3990   20.5320 C   0  0  0  0  0  0  0  0  0  0  0  0
   53.3170  -34.9730   20.3740 C   0  0  2  0  0  0  0  0  0  0  0  0
   52.1840  -33.8970   20.0940 C   0  0  0  0  0  0  0  0  0  0  0  0
   50.8300  -34.3830   19.6160 C   0  0  0  0  0  0  0  0  0  0  0  0
   50.5740  -34.7610   18.2310 C   0  0  0  0  0  0  0  0  0  0  0  0
   49.3120  -35.3250   17.8760 C   0  0  0  0  0  0  0  0  0  0  0  0
   48.2790  -35.5120   18.8700 C   0  0  0  0  0  0  0  0  0  0  0  0
   48.5230  -35.0510   20.2400 C   0  0  0  0  0  0  0  0  0  0  0  0
   49.7880  -34.4950   20.6110 C   0  0  0  0  0  0  0  0  0  0  0  0
   45.9890  -36.8120   18.9200 C   0  0  0  0  0  0  0  0  0  0  0  0
   45.3650  -37.5740   17.7320 C   0  0  0  0  0  0  0  0  0  0  0  0
   46.4180  -38.2460   15.5880 C   0  0  0  0  0  0  0  0  0  0  0  0
   46.5170  -40.1170   17.6320 C   0  0  0  0  0  0  0  0  0  0  0  0
   47.7350  -42.2140   17.4320 C   0  0  0  0  0  0  0  0  0  0  0  0
   47.2430  -42.6970   18.7040 C   0  0  0  0  0  0  0  0  0  0  0  0
   46.3570  -41.8640   19.4600 C   0  0  0  0  0  0  0  0  0  0  0  0
   45.9890  -40.5800   18.9330 C   0  0  0  0  0  0  0  0  0  0  0  0
   56.2146  -34.3839   21.9483 H   0  0  0  0  0  0  0  0  0  0  0  0
   53.2877  -35.5620   19.4812 H   0  0  0  0  0  0  0  0  0  0  0  0
   52.5607  -33.2275   19.3492 H   0  0  0  0  0  0  0  0  0  0  0  0
   51.9855  -33.4684   21.0541 H   0  0  0  0  0  0  0  0  0  0  0  0
   51.3010  -34.6215   17.5119 H   0  0  0  0  0  0  0  0  0  0  0  0
   49.1347  -35.6027   16.8980 H   0  0  0  0  0  0  0  0  0  0  0  0
   47.7735  -35.1284   20.9452 H   0  0  0  0  0  0  0  0  0  0  0  0
   49.9545  -34.1774   21.5787 H   0  0  0  0  0  0  0  0  0  0  0  0
   45.2943  -36.1102   19.3320 H   0  0  0  0  0  0  0  0  0  0  0  0
   46.2656  -37.4548   19.7294 H   0  0  0  0  0  0  0  0  0  0  0  0
   44.4588  -38.0155   18.0908 H   0  0  0  0  0  0  0  0  0  0  0  0
   45.2823  -36.8218   16.9756 H   0  0  0  0  0  0  0  0  0  0  0  0
   46.0758  -37.2415   15.4508 H   0  0  0  0  0  0  0  0  0  0  0  0
   45.8968  -38.8953   14.9160 H   0  0  0  0  0  0  0  0  0  0  0  0
   47.4682  -38.2953   15.3890 H   0  0  0  0  0  0  0  0  0  0  0  0
   48.3734  -42.8023   16.8740 H   0  0  0  0  0  0  0  0  0  0  0  0
   47.5251  -43.6238   19.0595 H   0  0  0  0  0  0  0  0  0  0  0  0
   45.9884  -42.1817   20.3701 H   0  0  0  0  0  0  0  0  0  0  0  0
   45.3486  -39.9734   19.4686 H   0  0  0  0  0  0  0  0  0  0  0  0
  1  8  1  0  0  0  0
  1 10  1  0  0  0  0
  2  8  2  0  0  0  0
  3  9  2  0  0  0  0
  4 15  1  0  0  0  0
  4 18  1  0  0  0  0
  5  8  1  0  0  0  0
  5  9  1  0  0  0  0
  5 26  1  0  0  0  0
  6 19  1  0  0  0  0
  6 20  1  0  0  0  0
  6 21  1  0  0  0  0
  7 21  2  0  0  0  0
  7 22  1  0  0  0  0
  9 10  1  0  0  0  0
 10 11  1  0  0  0  0
 10 27  1  6  0  0  0
 11 12  1  0  0  0  0
 11 28  1  0  0  0  0
 11 29  1  0  0  0  0
 12 13  2  0  0  0  0
 12 17  1  0  0  0  0
 13 14  1  0  0  0  0
 13 30  1  0  0  0  0
 14 15  2  0  0  0  0
 14 31  1  0  0  0  0
 15 16  1  0  0  0  0
 16 17  2  0  0  0  0
 16 32  1  0  0  0  0
 17 33  1  0  0  0  0
 18 19  1  0  0  0  0
 18 34  1  0  0  0  0
 18 35  1  0  0  0  0
 19 36  1  0  0  0  0
 19 37  1  0  0  0  0
 20 38  1  0  0  0  0
 20 39  1  0  0  0  0
 20 40  1  0  0  0  0
 21 25  1  0  0  0  0
 22 23  2  0  0  0  0
 22 41  1  0  0  0  0
 23 24  1  0  0  0  0
 23 42  1  0  0  0  0
 24 25  2  0  0  0  0
 24 43  1  0  0  0  0
 25 44  1  0  0  0  0
M  END
>  <HET>
 BRL  A   1      25

>  <HETSYN>
     BRL BRL49653; ROSIGLITAZONE

>  <HETNAM>
     BRL 2,4-THIAZOLIDIINEDIONE, 5-[[4-[2-(METHYL-2-PYRIDINYLAMI
   2 BRL NO)ETHOXY]PHENYL]METHYL]-(9CL)

>  <FORMUL>
      BRL    C18 H19 N3 O3 S1

$$$$
