570.pdb
 OpenBabel11112015323D

 71 75  0  0  1  0  0  0  0  0999 V2000
   14.6300   -6.6230   12.2970 N   0  0  0  0  0  0  0  0  0  0  0  0
   15.1750   -5.2870   12.7430 C   0  0  1  0  0  0  0  0  0  0  0  0
   14.0590   -4.2800   13.1630 C   0  0  0  0  0  0  0  0  0  0  0  0
   13.0210   -3.9940   12.0720 C   0  0  0  0  0  0  0  0  0  0  0  0
   11.7640   -4.6810   12.1280 C   0  0  0  0  0  0  0  0  0  0  0  0
   13.2850   -3.0650   11.0120 C   0  0  0  0  0  0  0  0  0  0  0  0
   10.7800   -4.4500   11.1480 C   0  0  0  0  0  0  0  0  0  0  0  0
   12.3040   -2.8260   10.0230 C   0  0  0  0  0  0  0  0  0  0  0  0
   11.0160   -3.5280   10.0790 C   0  0  0  0  0  0  0  0  0  0  0  0
    9.9370   -3.3850    9.1550 O   0  0  0  0  0  0  0  0  0  0  0  0
   15.2240   -7.7670   11.6100 C   0  0  0  0  0  0  0  0  0  0  0  0
   14.3950   -8.8860   11.1480 C   0  0  0  0  0  0  0  0  0  0  0  0
   15.0700   -9.9720   10.4770 C   0  0  0  0  0  0  0  0  0  0  0  0
   16.4700   -9.9630   10.2740 C   0  0  0  0  0  0  0  0  0  0  0  0
   17.2490   -8.8820   10.7250 C   0  0  0  0  0  0  0  0  0  0  0  0
   16.6460   -7.8050   11.3780 C   0  0  0  0  0  0  0  0  0  0  0  0
   11.8910  -10.1700   10.9450 C   0  0  0  0  0  0  0  0  0  0  0  0
   10.5890   -9.8870   10.3830 C   0  0  0  0  0  0  0  0  0  0  0  0
    9.7040  -10.9480   10.0350 C   0  0  0  0  0  0  0  0  0  0  0  0
   10.1070  -12.3000   10.2430 C   0  0  0  0  0  0  0  0  0  0  0  0
   11.3870  -12.5880   10.7970 C   0  0  0  0  0  0  0  0  0  0  0  0
   12.2690  -11.5350   11.1440 C   0  0  0  0  0  0  0  0  0  0  0  0
   12.8220   -9.0230   11.3070 C   0  0  0  0  0  0  0  0  0  0  0  0
   12.2120   -8.0260   11.7450 O   0  0  0  0  0  0  0  0  0  0  0  0
    8.6790   -6.3110    5.5150 O   0  0  0  0  0  0  0  0  0  0  0  0
    9.4630   -5.6750    4.5590 C   0  0  0  0  0  0  0  0  0  0  0  0
    9.6210   -4.3510    5.0320 N   0  0  0  0  0  0  0  0  0  0  0  0
    8.9300   -4.2570    6.2210 C   0  0  0  0  0  0  0  0  0  0  0  0
    8.3000   -5.5050    6.5670 C   0  0  0  0  0  0  0  0  0  0  0  0
    7.4350   -5.8570    7.7840 C   0  0  0  0  0  0  0  0  0  0  0  0
    9.9910   -6.1960    3.3780 C   0  0  0  0  0  0  0  0  0  0  0  0
   10.7850   -5.4040    2.4690 C   0  0  0  0  0  0  0  0  0  0  0  0
   11.2940   -5.9840    1.2780 C   0  0  0  0  0  0  0  0  0  0  0  0
   11.0230   -7.3440    0.9760 C   0  0  0  0  0  0  0  0  0  0  0  0
   10.2440   -8.1370    1.8620 C   0  0  0  0  0  0  0  0  0  0  0  0
    9.7290   -7.5690    3.0540 C   0  0  0  0  0  0  0  0  0  0  0  0
   10.1330   -2.6860    7.9020 C   0  0  0  0  0  0  0  0  0  0  0  0
    8.8860   -2.9130    7.0260 C   0  0  0  0  0  0  0  0  0  0  0  0
   17.2590   -4.8030   13.7310 O   0  0  0  0  0  0  0  0  0  0  0  0
   15.9520   -6.2630   14.7920 O   0  0  0  0  0  0  0  0  0  0  0  0
   16.1870   -5.4460   13.8430 C   0  0  0  0  0  0  0  0  0  0  0  0
   13.6780   -6.7488   12.5141 H   0  0  0  0  0  0  0  0  0  0  0  0
   15.6631   -4.8686   11.8877 H   0  0  0  0  0  0  0  0  0  0  0  0
   14.5261   -3.3554   13.4311 H   0  0  0  0  0  0  0  0  0  0  0  0
   13.5306   -4.7316   13.9764 H   0  0  0  0  0  0  0  0  0  0  0  0
   11.5791   -5.3496   12.8921 H   0  0  0  0  0  0  0  0  0  0  0  0
   14.1904   -2.5714   10.9713 H   0  0  0  0  0  0  0  0  0  0  0  0
    9.8791   -4.9507   11.2010 H   0  0  0  0  0  0  0  0  0  0  0  0
   12.4935   -2.1570    9.2604 H   0  0  0  0  0  0  0  0  0  0  0  0
   14.5174  -10.7746   10.1371 H   0  0  0  0  0  0  0  0  0  0  0  0
   16.9229  -10.7550    9.7917 H   0  0  0  0  0  0  0  0  0  0  0  0
   18.2697   -8.8849   10.5727 H   0  0  0  0  0  0  0  0  0  0  0  0
   17.2313   -7.0191   11.7016 H   0  0  0  0  0  0  0  0  0  0  0  0
   10.2984   -8.9082   10.2327 H   0  0  0  0  0  0  0  0  0  0  0  0
    8.7761  -10.7391    9.6345 H   0  0  0  0  0  0  0  0  0  0  0  0
    9.4695  -13.0716    9.9915 H   0  0  0  0  0  0  0  0  0  0  0  0
   11.6733  -13.5682   10.9464 H   0  0  0  0  0  0  0  0  0  0  0  0
   13.1942  -11.7552   11.5447 H   0  0  0  0  0  0  0  0  0  0  0  0
    7.1309   -6.8810    7.7213 H   0  0  0  0  0  0  0  0  0  0  0  0
    6.5694   -5.2282    7.8002 H   0  0  0  0  0  0  0  0  0  0  0  0
    8.0013   -5.7073    8.6794 H   0  0  0  0  0  0  0  0  0  0  0  0
   10.9828   -4.4146    2.6856 H   0  0  0  0  0  0  0  0  0  0  0  0
   11.8622   -5.4159    0.6304 H   0  0  0  0  0  0  0  0  0  0  0  0
   11.3939   -7.7600    0.1074 H   0  0  0  0  0  0  0  0  0  0  0  0
   10.0535   -9.1261    1.6373 H   0  0  0  0  0  0  0  0  0  0  0  0
    9.1615   -8.1470    3.6934 H   0  0  0  0  0  0  0  0  0  0  0  0
   10.9998   -3.0689    7.4050 H   0  0  0  0  0  0  0  0  0  0  0  0
   10.2755   -1.6405    8.0796 H   0  0  0  0  0  0  0  0  0  0  0  0
    8.0236   -2.9246    7.6593 H   0  0  0  0  0  0  0  0  0  0  0  0
    8.8513   -2.1169    6.3119 H   0  0  0  0  0  0  0  0  0  0  0  0
   15.1332   -6.7173   14.8272 H   0  0  0  0  0  0  0  0  0  0  0  0
  1  2  1  0  0  0  0
  1 11  1  0  0  0  0
  1 42  1  0  0  0  0
  2  3  1  0  0  0  0
  2 41  1  0  0  0  0
  2 43  1  6  0  0  0
  3  4  1  0  0  0  0
  3 44  1  0  0  0  0
  3 45  1  0  0  0  0
  4  5  2  0  0  0  0
  4  6  1  0  0  0  0
  5  7  1  0  0  0  0
  5 46  1  0  0  0  0
  6  8  2  0  0  0  0
  6 47  1  0  0  0  0
  7  9  2  0  0  0  0
  7 48  1  0  0  0  0
  8  9  1  0  0  0  0
  8 49  1  0  0  0  0
  9 10  1  0  0  0  0
 10 37  1  0  0  0  0
 11 12  2  0  0  0  0
 11 16  1  0  0  0  0
 12 13  1  0  0  0  0
 12 23  1  0  0  0  0
 13 14  2  0  0  0  0
 13 50  1  0  0  0  0
 14 15  1  0  0  0  0
 14 51  1  0  0  0  0
 15 16  2  0  0  0  0
 15 52  1  0  0  0  0
 16 53  1  0  0  0  0
 17 18  2  0  0  0  0
 17 22  1  0  0  0  0
 17 23  1  0  0  0  0
 18 19  1  0  0  0  0
 18 54  1  0  0  0  0
 19 20  2  0  0  0  0
 19 55  1  0  0  0  0
 20 21  1  0  0  0  0
 20 56  1  0  0  0  0
 21 22  2  0  0  0  0
 21 57  1  0  0  0  0
 22 58  1  0  0  0  0
 23 24  2  0  0  0  0
 25 26  1  0  0  0  0
 25 29  1  0  0  0  0
 26 27  2  0  0  0  0
 26 31  1  0  0  0  0
 27 28  1  0  0  0  0
 28 29  2  0  0  0  0
 28 38  1  0  0  0  0
 29 30  1  0  0  0  0
 30 59  1  0  0  0  0
 30 60  1  0  0  0  0
 30 61  1  0  0  0  0
 31 32  2  0  0  0  0
 31 36  1  0  0  0  0
 32 33  1  0  0  0  0
 32 62  1  0  0  0  0
 33 34  2  0  0  0  0
 33 63  1  0  0  0  0
 34 35  1  0  0  0  0
 34 64  1  0  0  0  0
 35 36  2  0  0  0  0
 35 65  1  0  0  0  0
 36 66  1  0  0  0  0
 37 38  1  0  0  0  0
 37 67  1  0  0  0  0
 37 68  1  0  0  0  0
 38 69  1  0  0  0  0
 38 70  1  0  0  0  0
 39 41  2  0  0  0  0
 40 41  1  0  0  0  0
 40 71  1  0  0  0  0
M  END
>  <HET>
 570  D 200      41

>  <HETSYN>
     570 GI262570

>  <HETNAM>
     570 2-(2-BENZOYL-PHENYLAMINO)-3-{4-[2-(5-METHYL-2-PHENYL-OX
   2 570 AZOL-4-YL)-ETHOXY]-PHENYL}-PROPIONIC ACID

>  <FORMUL>
      570    C34 H30 N2 O5

$$$$
