570.pdb
  rDOCK(R)          3D
libRbt.so/2013.1/901 2013/11/27
 43 47  0  0  0  0  0  0  0  0999 V2000
   46.6637  -37.4435   16.7077 N   0  0  0  0  0  0
   47.2814  -36.1916   16.1313 C   0  0  0  0  0  0
   48.8323  -36.2861   15.9843 C   0  0  0  0  0  0
   49.6132  -35.3130   16.8747 C   0  0  0  0  0  0
   48.9529  -34.1256   17.3322 C   0  0  0  0  0  0
   50.9735  -35.5680   17.2499 C   0  0  0  0  0  0
   49.6301  -33.2031   18.1523 C   0  0  0  0  0  0
   51.6625  -34.6482   18.0726 C   0  0  0  0  0  0
   50.9879  -33.4322   18.5426 C   0  0  0  0  0  0
   51.5559  -32.4213   19.3758 O   0  0  0  0  0  0
   46.6976  -38.8492   16.3124 C   0  0  0  0  0  0
   45.8385  -39.8408   16.9695 C   0  0  0  0  0  0
   45.9393  -41.2062   16.5105 C   0  0  0  0  0  0
   46.8284  -41.5769   15.4744 C   0  0  0  0  0  0
   47.6455  -40.6127   14.8568 C   0  0  0  0  0  0
   47.5857  -39.2774   15.2612 C   0  0  0  0  0  0
   44.5797  -38.3200   18.9851 C   0  0  0  0  0  0
   45.1410  -38.2513   20.3160 C   0  0  0  0  0  0
   44.9480  -37.0943   21.1248 C   0  0  0  0  0  0
   44.1949  -35.9954   20.6161 C   0  0  0  0  0  0
   43.6375  -36.0548   19.3069 C   0  0  0  0  0  0
   43.8278  -37.2040   18.5005 C   0  0  0  0  0  0
   44.7998  -39.5631   18.1367 C   0  0  0  0  0  0
   44.0677  -40.5152   18.4764 O   0  0  0  0  0  0
   54.2451  -33.4431   22.7594 O   0  0  0  0  0  0
   53.5406  -34.5109   22.2146 C   0  0  0  0  0  0
   53.3751  -34.1855   20.8477 N   0  0  0  0  0  0
   53.9690  -32.9582   20.6454 C   0  0  0  0  0  0
   54.5402  -32.4397   21.8615 C   0  0  0  0  0  0
   55.2851  -31.1210   22.1051 C   0  0  0  0  0  0
   53.0781  -35.6638   22.8485 C   0  0  0  0  0  0
   53.3294  -35.9343   24.2441 C   0  0  0  0  0  0
   52.8390  -37.1264   24.8376 C   0  0  0  0  0  0
   52.1010  -38.0572   24.0608 C   0  0  0  0  0  0
   51.8442  -37.8041   22.6858 C   0  0  0  0  0  0
   52.3297  -36.6178   22.0812 C   0  0  0  0  0  0
   52.6361  -31.5902   18.8867 C   0  0  0  0  0  0
   53.9683  -32.2835   19.2308 C   0  0  0  0  0  0
   46.9616  -34.7084   14.3282 O   0  0  0  0  0  0
   45.7786  -36.5967   14.3059 O   0  0  0  0  0  0
   46.6463  -35.8188   14.8210 C   0  0  0  0  0  0
   46.1277  -37.2779   17.5167 H   0  0  0  0  0  0
   45.4466  -36.4248   13.4467 H   0  0  0  0  0  0
  1  2  1  0  0  0
  1 11  1  0  0  0
  1 42  1  0  0  0
  2  3  1  0  0  0
  2 41  1  0  0  0
  3  4  1  0  0  0
  4  5  2  0  0  0
  4  6  1  0  0  0
  5  7  1  0  0  0
  6  8  2  0  0  0
  7  9  2  0  0  0
  8  9  1  0  0  0
  9 10  1  0  0  0
 10 37  1  0  0  0
 11 12  2  0  0  0
 11 16  1  0  0  0
 12 13  1  0  0  0
 12 23  1  0  0  0
 13 14  2  0  0  0
 14 15  1  0  0  0
 15 16  2  0  0  0
 17 18  2  0  0  0
 17 22  1  0  0  0
 17 23  1  0  0  0
 18 19  1  0  0  0
 19 20  2  0  0  0
 20 21  1  0  0  0
 21 22  2  0  0  0
 23 24  2  0  0  0
 25 26  1  0  0  0
 25 29  1  0  0  0
 26 27  2  0  0  0
 26 31  1  0  0  0
 27 28  1  0  0  0
 28 29  2  0  0  0
 28 38  1  0  0  0
 29 30  1  0  0  0
 31 32  2  0  0  0
 31 36  1  0  0  0
 32 33  1  0  0  0
 33 34  2  0  0  0
 34 35  1  0  0  0
 35 36  2  0  0  0
 37 38  1  0  0  0
 39 41  2  0  0  0
 40 41  1  0  0  0
 40 43  1  0  0  0
M  END
>  <CHROM.0>
95.66903994,172.92857420,-117.49866773,-131.37138577

>  <CHROM.1>
-55.93216787,-171.45920634,-114.76250843,171.45888733,-23.40341217,-113.33507728
-89.87035316,-10.17047519,-99.55703082,-2.25656234,79.52392272,-39.36489439
-173.18177163,49.23051980,-36.14312701,18.93941360,-2.96680656,0.68849287
2.10209713

>  <FORMUL>
      570    C34 H30 N2 O5

>  <HET>
 570  D 200      41

>  <HETNAM>
     570 2-(2-BENZOYL-PHENYLAMINO)-3-{4-[2-(5-METHYL-2-PHENYL-OX
   2 570 AZOL-4-YL)-ETHOXY]-PHENYL}-PROPIONIC ACID

>  <HETSYN>
     570 GI262570

>  <Name>
570.pdb

>  <RI>
0

>  <Rbt.Current_Directory>
/home/malgorzata/Desktop/rDOCK_IFD/test14

>  <Rbt.Executable>
rbdock ($Id: //depot/dev/client3/rdock/2013.1/src/exe/rbdock.cxx#4 $)

>  <Rbt.Library>
libRbt.so (2013.1, Build901 2013/11/27)

>  <Rbt.Parameter_File>
/home/malgorzata/Desktop/rDock_2013.1_src/data/scripts/soft_docking.prm

>  <Rbt.Receptor>
cavity.prm

>  <SCORE>
-19.7471

>  <SCORE.INTER>
-26.9753

>  <SCORE.INTER.CONST>
1

>  <SCORE.INTER.POLAR>
-0.765701

>  <SCORE.INTER.REPUL>
0

>  <SCORE.INTER.ROT>
12

>  <SCORE.INTER.VDW>
-41.7719

>  <SCORE.INTER.norm>
-0.657934

>  <SCORE.INTRA>
4.4214

>  <SCORE.INTRA.DIHEDRAL>
20.873

>  <SCORE.INTRA.DIHEDRAL.0>
12.9748

>  <SCORE.INTRA.POLAR>
0.058673

>  <SCORE.INTRA.POLAR.0>
-0.058673

>  <SCORE.INTRA.REPUL>
0

>  <SCORE.INTRA.REPUL.0>
0

>  <SCORE.INTRA.VDW>
0.0473174

>  <SCORE.INTRA.VDW.0>
-4.98062

>  <SCORE.INTRA.norm>
0.107839

>  <SCORE.RESTR>
0.3344

>  <SCORE.RESTR.CAVITY>
0.3344

>  <SCORE.RESTR.norm>
0.00815609

>  <SCORE.SYSTEM>
2.47238

>  <SCORE.SYSTEM.CONST>
0

>  <SCORE.SYSTEM.DIHEDRAL>
11.3717

>  <SCORE.SYSTEM.POLAR>
-0.228874

>  <SCORE.SYSTEM.REPUL>
0.0467333

>  <SCORE.SYSTEM.VDW>
-2.66895

>  <SCORE.SYSTEM.norm>
0.0603019

>  <SCORE.heavy>
41

>  <SCORE.norm>
-0.481637

$$$$
570.pdb
  rDOCK(R)          3D
libRbt.so/2013.1/901 2013/11/27
 43 47  0  0  0  0  0  0  0  0999 V2000
   46.3981  -37.7375   15.2286 N   0  0  0  0  0  0
   47.1062  -37.3462   16.5039 C   0  0  0  0  0  0
   46.1260  -36.9406   17.6487 C   0  0  0  0  0  0
   46.7540  -36.0665   18.7400 C   0  0  0  0  0  0
   46.5429  -36.4284   20.1109 C   0  0  0  0  0  0
   47.5361  -34.9093   18.4150 C   0  0  0  0  0  0
   47.1005  -35.6557   21.1472 C   0  0  0  0  0  0
   48.1002  -34.1265   19.4478 C   0  0  0  0  0  0
   47.8858  -34.4960   20.8522 C   0  0  0  0  0  0
   48.3935  -33.8037   21.9931 O   0  0  0  0  0  0
   46.7947  -37.7350   13.8228 C   0  0  0  0  0  0
   47.7673  -36.7619   13.3128 C   0  0  0  0  0  0
   48.0995  -36.8372   11.9095 C   0  0  0  0  0  0
   47.5132  -37.8037   11.0590 C   0  0  0  0  0  0
   46.5815  -38.7279   11.5654 C   0  0  0  0  0  0
   46.2266  -38.7003   12.9157 C   0  0  0  0  0  0
   48.4492  -34.1173   14.0203 C   0  0  0  0  0  0
   49.6631  -33.3442   14.1616 C   0  0  0  0  0  0
   49.6365  -31.9249   14.0387 C   0  0  0  0  0  0
   48.4017  -31.2626   13.7738 C   0  0  0  0  0  0
   47.2011  -32.0159   13.6342 C   0  0  0  0  0  0
   47.2246  -33.4272   13.7560 C   0  0  0  0  0  0
   48.4996  -35.6317   14.1522 C   0  0  0  0  0  0
   49.2956  -36.0132   15.0347 O   0  0  0  0  0  0
   53.5488  -36.0888   20.9254 O   0  0  0  0  0  0
   53.6773  -34.7415   20.6072 C   0  0  0  0  0  0
   52.5694  -34.1098   21.2198 N   0  0  0  0  0  0
   51.8399  -35.0915   21.8555 C   0  0  0  0  0  0
   52.4382  -36.3902   21.6842 C   0  0  0  0  0  0
   51.9728  -37.7556   22.2060 C   0  0  0  0  0  0
   54.6661  -34.1157   19.8485 C   0  0  0  0  0  0
   54.3648  -33.3586   18.6568 C   0  0  0  0  0  0
   55.4111  -32.7458   17.9194 C   0  0  0  0  0  0
   56.7571  -32.8764   18.3503 C   0  0  0  0  0  0
   57.0692  -33.6174   19.5225 C   0  0  0  0  0  0
   56.0333  -34.2351   20.2669 C   0  0  0  0  0  0
   49.8050  -33.4969   22.0957 C   0  0  0  0  0  0
   50.5285  -34.7435   22.6401 C   0  0  0  0  0  0
   49.2081  -38.0797   17.2771 O   0  0  0  0  0  0
   47.6478  -39.6385   16.9588 O   0  0  0  0  0  0
   48.0429  -38.4272   16.9661 C   0  0  0  0  0  0
   45.4799  -38.0610   15.3750 H   0  0  0  0  0  0
   47.9346  -40.2208   16.2830 H   0  0  0  0  0  0
  1  2  1  0  0  0
  1 11  1  0  0  0
  1 42  1  0  0  0
  2  3  1  0  0  0
  2 41  1  0  0  0
  3  4  1  0  0  0
  4  5  2  0  0  0
  4  6  1  0  0  0
  5  7  1  0  0  0
  6  8  2  0  0  0
  7  9  2  0  0  0
  8  9  1  0  0  0
  9 10  1  0  0  0
 10 37  1  0  0  0
 11 12  2  0  0  0
 11 16  1  0  0  0
 12 13  1  0  0  0
 12 23  1  0  0  0
 13 14  2  0  0  0
 14 15  1  0  0  0
 15 16  2  0  0  0
 17 18  2  0  0  0
 17 22  1  0  0  0
 17 23  1  0  0  0
 18 19  1  0  0  0
 19 20  2  0  0  0
 20 21  1  0  0  0
 21 22  2  0  0  0
 23 24  2  0  0  0
 25 26  1  0  0  0
 25 29  1  0  0  0
 26 27  2  0  0  0
 26 31  1  0  0  0
 27 28  1  0  0  0
 28 29  2  0  0  0
 28 38  1  0  0  0
 29 30  1  0  0  0
 31 32  2  0  0  0
 31 36  1  0  0  0
 32 33  1  0  0  0
 33 34  2  0  0  0
 34 35  1  0  0  0
 35 36  2  0  0  0
 37 38  1  0  0  0
 39 41  2  0  0  0
 40 41  1  0  0  0
 40 43  1  0  0  0
M  END
>  <CHROM.0>
-33.56631832,-30.97773404,-77.83320550,-132.94111147

>  <CHROM.1>
154.98757962,-29.69001734,-158.42471026,131.56578793,-131.58897920,127.67950007
-82.95647373,-117.55420756,-138.90508359,121.33245086,28.01848604,134.32723943
103.11804618,49.71732269,-35.44914365,17.52150775,2.39934175,-0.49315653
-1.40145853

>  <FORMUL>
      570    C34 H30 N2 O5

>  <HET>
 570  D 200      41

>  <HETNAM>
     570 2-(2-BENZOYL-PHENYLAMINO)-3-{4-[2-(5-METHYL-2-PHENYL-OX
   2 570 AZOL-4-YL)-ETHOXY]-PHENYL}-PROPIONIC ACID

>  <HETSYN>
     570 GI262570

>  <Name>
570.pdb

>  <RI>
0

>  <Rbt.Current_Directory>
/home/malgorzata/Desktop/rDOCK_IFD/test14

>  <Rbt.Executable>
rbdock ($Id: //depot/dev/client3/rdock/2013.1/src/exe/rbdock.cxx#4 $)

>  <Rbt.Library>
libRbt.so (2013.1, Build901 2013/11/27)

>  <Rbt.Parameter_File>
/home/malgorzata/Desktop/rDock_2013.1_src/data/scripts/soft_docking.prm

>  <Rbt.Receptor>
cavity.prm

>  <SCORE>
-14.6739

>  <SCORE.INTER>
-29.6033

>  <SCORE.INTER.CONST>
1

>  <SCORE.INTER.POLAR>
-0.121702

>  <SCORE.INTER.REPUL>
0

>  <SCORE.INTER.ROT>
12

>  <SCORE.INTER.VDW>
-46.5895

>  <SCORE.INTER.norm>
-0.722032

>  <SCORE.INTRA>
10.2492

>  <SCORE.INTRA.DIHEDRAL>
54.0369

>  <SCORE.INTRA.DIHEDRAL.0>
12.9748

>  <SCORE.INTRA.POLAR>
0.058673

>  <SCORE.INTRA.POLAR.0>
-0.058673

>  <SCORE.INTRA.REPUL>
0

>  <SCORE.INTRA.REPUL.0>
0

>  <SCORE.INTRA.VDW>
-0.757658

>  <SCORE.INTRA.VDW.0>
-4.98062

>  <SCORE.INTRA.norm>
0.249981

>  <SCORE.RESTR>
0.668419

>  <SCORE.RESTR.CAVITY>
0.668419

>  <SCORE.RESTR.norm>
0.0163029

>  <SCORE.SYSTEM>
4.0118

>  <SCORE.SYSTEM.CONST>
0

>  <SCORE.SYSTEM.DIHEDRAL>
13.5454

>  <SCORE.SYSTEM.POLAR>
-0.216839

>  <SCORE.SYSTEM.REPUL>
0.0467333

>  <SCORE.SYSTEM.VDW>
-2.25731

>  <SCORE.SYSTEM.norm>
0.0978487

>  <SCORE.heavy>
41

>  <SCORE.norm>
-0.357899

$$$$
570.pdb
  rDOCK(R)          3D
libRbt.so/2013.1/901 2013/11/27
 43 47  0  0  0  0  0  0  0  0999 V2000
   46.5071  -37.6582   14.9848 N   0  0  0  0  0  0
   47.1036  -36.2727   15.0593 C   0  0  0  0  0  0
   48.5328  -36.2545   15.6861 C   0  0  0  0  0  0
   48.7427  -35.1739   16.7528 C   0  0  0  0  0  0
   47.5878  -34.5815   17.3615 C   0  0  0  0  0  0
   50.0564  -34.7524   17.1437 C   0  0  0  0  0  0
   47.7316  -33.5856   18.3462 C   0  0  0  0  0  0
   50.2118  -33.7531   18.1311 C   0  0  0  0  0  0
   49.0305  -33.1458   18.7561 C   0  0  0  0  0  0
   49.0359  -32.1333   19.7627 O   0  0  0  0  0  0
   47.0135  -38.9410   14.5036 C   0  0  0  0  0  0
   46.9992  -40.1304   15.3626 C   0  0  0  0  0  0
   47.5185  -41.3548   14.8001 C   0  0  0  0  0  0
   48.0227  -41.4093   13.4795 C   0  0  0  0  0  0
   48.0296  -40.2583   12.6707 C   0  0  0  0  0  0
   47.5369  -39.0488   13.1650 C   0  0  0  0  0  0
   46.3451  -41.3980   17.7968 C   0  0  0  0  0  0
   45.5381  -42.5366   17.4181 C   0  0  0  0  0  0
   45.4173  -43.6598   18.2864 C   0  0  0  0  0  0
   46.0988  -43.6599   19.5391 C   0  0  0  0  0  0
   46.8949  -42.5424   19.9206 C   0  0  0  0  0  0
   47.0167  -41.4242   19.0593 C   0  0  0  0  0  0
   46.4633  -40.2102   16.8542 C   0  0  0  0  0  0
   46.0058  -39.1574   17.3446 O   0  0  0  0  0  0
   50.9131  -35.7058   22.4882 O   0  0  0  0  0  0
   52.0783  -34.9481   22.5229 C   0  0  0  0  0  0
   51.6495  -33.6052   22.4033 N   0  0  0  0  0  0
   50.2754  -33.6234   22.2958 C   0  0  0  0  0  0
   49.7588  -34.9670   22.3409 C   0  0  0  0  0  0
   48.3084  -35.4583   22.2518 C   0  0  0  0  0  0
   53.3978  -35.3836   22.6432 C   0  0  0  0  0  0
   53.8512  -36.1827   23.7566 C   0  0  0  0  0  0
   55.2071  -36.5949   23.8313 C   0  0  0  0  0  0
   56.1220  -36.2217   22.8125 C   0  0  0  0  0  0
   55.6901  -35.4364   21.7091 C   0  0  0  0  0  0
   54.3388  -35.0175   21.6237 C   0  0  0  0  0  0
   48.3868  -32.3630   21.0366 C   0  0  0  0  0  0
   49.4593  -32.2944   22.1407 C   0  0  0  0  0  0
   47.5662  -36.2599   12.7486 O   0  0  0  0  0  0
   46.7136  -34.3942   13.6192 O   0  0  0  0  0  0
   47.1061  -35.6026   13.7138 C   0  0  0  0  0  0
   45.5873  -37.7068   15.3324 H   0  0  0  0  0  0
   46.4459  -34.0521   12.7889 H   0  0  0  0  0  0
  1  2  1  0  0  0
  1 11  1  0  0  0
  1 42  1  0  0  0
  2  3  1  0  0  0
  2 41  1  0  0  0
  3  4  1  0  0  0
  4  5  2  0  0  0
  4  6  1  0  0  0
  5  7  1  0  0  0
  6  8  2  0  0  0
  7  9  2  0  0  0
  8  9  1  0  0  0
  9 10  1  0  0  0
 10 37  1  0  0  0
 11 12  2  0  0  0
 11 16  1  0  0  0
 12 13  1  0  0  0
 12 23  1  0  0  0
 13 14  2  0  0  0
 14 15  1  0  0  0
 15 16  2  0  0  0
 17 18  2  0  0  0
 17 22  1  0  0  0
 17 23  1  0  0  0
 18 19  1  0  0  0
 19 20  2  0  0  0
 20 21  1  0  0  0
 21 22  2  0  0  0
 23 24  2  0  0  0
 25 26  1  0  0  0
 25 29  1  0  0  0
 26 27  2  0  0  0
 26 31  1  0  0  0
 27 28  1  0  0  0
 28 29  2  0  0  0
 28 38  1  0  0  0
 29 30  1  0  0  0
 31 32  2  0  0  0
 31 36  1  0  0  0
 32 33  1  0  0  0
 33 34  2  0  0  0
 34 35  1  0  0  0
 35 36  2  0  0  0
 37 38  1  0  0  0
 39 41  2  0  0  0
 40 41  1  0  0  0
 40 43  1  0  0  0
M  END
>  <CHROM.0>
177.81486028,87.39860676,-116.43459513,161.65654867

>  <CHROM.1>
-48.56450075,125.83373889,-133.16383168,-49.32552962,18.52266700,57.68272771
117.76878882,176.73988912,-59.11574219,-57.45458922,133.97549452,-81.10103641
-160.23757489,48.99298301,-36.93535757,18.41202494,2.88606496,0.97858560
2.77807154

>  <FORMUL>
      570    C34 H30 N2 O5

>  <HET>
 570  D 200      41

>  <HETNAM>
     570 2-(2-BENZOYL-PHENYLAMINO)-3-{4-[2-(5-METHYL-2-PHENYL-OX
   2 570 AZOL-4-YL)-ETHOXY]-PHENYL}-PROPIONIC ACID

>  <HETSYN>
     570 GI262570

>  <Name>
570.pdb

>  <RI>
0

>  <Rbt.Current_Directory>
/home/malgorzata/Desktop/rDOCK_IFD/test14

>  <Rbt.Executable>
rbdock ($Id: //depot/dev/client3/rdock/2013.1/src/exe/rbdock.cxx#4 $)

>  <Rbt.Library>
libRbt.so (2013.1, Build901 2013/11/27)

>  <Rbt.Parameter_File>
/home/malgorzata/Desktop/rDock_2013.1_src/data/scripts/soft_docking.prm

>  <Rbt.Receptor>
cavity.prm

>  <SCORE>
-17.6192

>  <SCORE.INTER>
-27.3551

>  <SCORE.INTER.CONST>
1

>  <SCORE.INTER.POLAR>
-0.298276

>  <SCORE.INTER.REPUL>
0

>  <SCORE.INTER.ROT>
12

>  <SCORE.INTER.VDW>
-43.741

>  <SCORE.INTER.norm>
-0.667197

>  <SCORE.INTRA>
8.69639

>  <SCORE.INTRA.DIHEDRAL>
41.7478

>  <SCORE.INTRA.DIHEDRAL.0>
12.9748

>  <SCORE.INTRA.POLAR>
0.058673

>  <SCORE.INTRA.POLAR.0>
-0.058673

>  <SCORE.INTRA.REPUL>
0

>  <SCORE.INTRA.REPUL.0>
0

>  <SCORE.INTRA.VDW>
0.147339

>  <SCORE.INTRA.VDW.0>
-4.98062

>  <SCORE.INTRA.norm>
0.212107

>  <SCORE.RESTR>
0.0788137

>  <SCORE.RESTR.CAVITY>
0.0788137

>  <SCORE.RESTR.norm>
0.00192229

>  <SCORE.SYSTEM>
0.960704

>  <SCORE.SYSTEM.CONST>
0

>  <SCORE.SYSTEM.DIHEDRAL>
7.41552

>  <SCORE.SYSTEM.POLAR>
-0.267152

>  <SCORE.SYSTEM.REPUL>
0.0467333

>  <SCORE.SYSTEM.VDW>
-2.0724

>  <SCORE.SYSTEM.norm>
0.0234318

>  <SCORE.heavy>
41

>  <SCORE.norm>
-0.429736

$$$$
570.pdb
  rDOCK(R)          3D
libRbt.so/2013.1/901 2013/11/27
 43 47  0  0  0  0  0  0  0  0999 V2000
   46.0284  -40.3436   15.2141 N   0  0  0  0  0  0
   45.0802  -39.2814   14.7108 C   0  0  0  0  0  0
   45.2266  -37.9229   15.4651 C   0  0  0  0  0  0
   46.6757  -37.4936   15.7208 C   0  0  0  0  0  0
   47.4063  -38.1447   16.7683 C   0  0  0  0  0  0
   47.3011  -36.4656   14.9408 C   0  0  0  0  0  0
   48.7399  -37.7839   17.0392 C   0  0  0  0  0  0
   48.6394  -36.0957   15.2047 C   0  0  0  0  0  0
   49.3894  -36.7617   16.2765 C   0  0  0  0  0  0
   50.7408  -36.4942   16.6518 O   0  0  0  0  0  0
   46.0884  -41.1300   16.4436 C   0  0  0  0  0  0
   46.9640  -42.3025   16.5497 C   0  0  0  0  0  0
   46.9582  -43.0168   17.8047 C   0  0  0  0  0  0
   46.1434  -42.6089   18.8869 C   0  0  0  0  0  0
   45.3092  -41.4827   18.7664 C   0  0  0  0  0  0
   45.2782  -40.7549   17.5751 C   0  0  0  0  0  0
   49.2765  -43.5578   15.5316 C   0  0  0  0  0  0
   49.6629  -44.1814   16.7778 C   0  0  0  0  0  0
   50.9223  -44.8363   16.9002 C   0  0  0  0  0  0
   51.8083  -44.8765   15.7835 C   0  0  0  0  0  0
   51.4365  -44.2640   14.5527 C   0  0  0  0  0  0
   50.1849  -43.6121   14.4281 C   0  0  0  0  0  0
   47.9263  -42.8663   15.4208 C   0  0  0  0  0  0
   47.5754  -42.6794   14.2376 O   0  0  0  0  0  0
   52.0819  -35.1354   20.4237 O   0  0  0  0  0  0
   53.4208  -35.0648   20.0556 C   0  0  0  0  0  0
   53.4089  -34.7331   18.6803 N   0  0  0  0  0  0
   52.0890  -34.6317   18.2961 C   0  0  0  0  0  0
   51.1963  -34.8909   19.3961 C   0  0  0  0  0  0
   49.6626  -34.8944   19.4282 C   0  0  0  0  0  0
   54.5531  -35.2742   20.8424 C   0  0  0  0  0  0
   55.8929  -35.1084   20.3312 C   0  0  0  0  0  0
   57.0103  -35.3393   21.1750 C   0  0  0  0  0  0
   56.8143  -35.7354   22.5237 C   0  0  0  0  0  0
   55.5010  -35.9014   23.0419 C   0  0  0  0  0  0
   54.3770  -35.6749   22.2089 C   0  0  0  0  0  0
   51.5246  -35.5192   15.9223 C   0  0  0  0  0  0
   51.7022  -34.2788   16.8189 C   0  0  0  0  0  0
   44.7067  -38.0429   12.7410 O   0  0  0  0  0  0
   45.7723  -39.9880   12.5253 O   0  0  0  0  0  0
   45.2166  -39.0815   13.2272 C   0  0  0  0  0  0
   46.7562  -40.5482   14.5835 H   0  0  0  0  0  0
   45.9561  -39.8327   11.6196 H   0  0  0  0  0  0
  1  2  1  0  0  0
  1 11  1  0  0  0
  1 42  1  0  0  0
  2  3  1  0  0  0
  2 41  1  0  0  0
  3  4  1  0  0  0
  4  5  2  0  0  0
  4  6  1  0  0  0
  5  7  1  0  0  0
  6  8  2  0  0  0
  7  9  2  0  0  0
  8  9  1  0  0  0
  9 10  1  0  0  0
 10 37  1  0  0  0
 11 12  2  0  0  0
 11 16  1  0  0  0
 12 13  1  0  0  0
 12 23  1  0  0  0
 13 14  2  0  0  0
 14 15  1  0  0  0
 15 16  2  0  0  0
 17 18  2  0  0  0
 17 22  1  0  0  0
 17 23  1  0  0  0
 18 19  1  0  0  0
 19 20  2  0  0  0
 20 21  1  0  0  0
 21 22  2  0  0  0
 23 24  2  0  0  0
 25 26  1  0  0  0
 25 29  1  0  0  0
 26 27  2  0  0  0
 26 31  1  0  0  0
 27 28  1  0  0  0
 28 29  2  0  0  0
 28 38  1  0  0  0
 29 30  1  0  0  0
 31 32  2  0  0  0
 31 36  1  0  0  0
 32 33  1  0  0  0
 33 34  2  0  0  0
 34 35  1  0  0  0
 35 36  2  0  0  0
 37 38  1  0  0  0
 39 41  2  0  0  0
 40 41  1  0  0  0
 40 43  1  0  0  0
M  END
>  <CHROM.0>
100.72690300,-64.98780962,-55.75988492,159.34577160

>  <CHROM.1>
71.67569074,166.77084613,42.84496230,-164.83760533,-76.18537811,177.54826182
108.15250489,146.91027195,20.56535247,-177.25091723,90.68184576,45.11062397
-172.65130888,49.60421980,-38.70730753,17.13932060,2.48249953,0.56449180
-3.05299454

>  <FORMUL>
      570    C34 H30 N2 O5

>  <HET>
 570  D 200      41

>  <HETNAM>
     570 2-(2-BENZOYL-PHENYLAMINO)-3-{4-[2-(5-METHYL-2-PHENYL-OX
   2 570 AZOL-4-YL)-ETHOXY]-PHENYL}-PROPIONIC ACID

>  <HETSYN>
     570 GI262570

>  <Name>
570.pdb

>  <RI>
0

>  <Rbt.Current_Directory>
/home/malgorzata/Desktop/rDOCK_IFD/test14

>  <Rbt.Executable>
rbdock ($Id: //depot/dev/client3/rdock/2013.1/src/exe/rbdock.cxx#4 $)

>  <Rbt.Library>
libRbt.so (2013.1, Build901 2013/11/27)

>  <Rbt.Parameter_File>
/home/malgorzata/Desktop/rDock_2013.1_src/data/scripts/soft_docking.prm

>  <Rbt.Receptor>
cavity.prm

>  <SCORE>
-20.8975

>  <SCORE.INTER>
-25.6761

>  <SCORE.INTER.CONST>
1

>  <SCORE.INTER.POLAR>
0

>  <SCORE.INTER.REPUL>
0.229608

>  <SCORE.INTER.ROT>
12

>  <SCORE.INTER.VDW>
-44.2242

>  <SCORE.INTER.norm>
-0.626247

>  <SCORE.INTRA>
3.57454

>  <SCORE.INTRA.DIHEDRAL>
7.95081

>  <SCORE.INTRA.DIHEDRAL.0>
12.9748

>  <SCORE.INTRA.POLAR>
0.0462229

>  <SCORE.INTRA.POLAR.0>
-0.058673

>  <SCORE.INTRA.REPUL>
0.382244

>  <SCORE.INTRA.REPUL.0>
0

>  <SCORE.INTRA.VDW>
-0.0840048

>  <SCORE.INTRA.VDW.0>
-4.98062

>  <SCORE.INTRA.norm>
0.0871838

>  <SCORE.RESTR>
0.0366917

>  <SCORE.RESTR.CAVITY>
0.0366917

>  <SCORE.RESTR.norm>
0.000894919

>  <SCORE.SYSTEM>
1.16739

>  <SCORE.SYSTEM.CONST>
0

>  <SCORE.SYSTEM.DIHEDRAL>
9.5339

>  <SCORE.SYSTEM.POLAR>
-0.289358

>  <SCORE.SYSTEM.REPUL>
0.0467333

>  <SCORE.SYSTEM.VDW>
-2.84941

>  <SCORE.SYSTEM.norm>
0.0284729

>  <SCORE.heavy>
41

>  <SCORE.norm>
-0.509695

$$$$
570.pdb
  rDOCK(R)          3D
libRbt.so/2013.1/901 2013/11/27
 43 47  0  0  0  0  0  0  0  0999 V2000
   50.8715  -34.6747   24.0084 N   0  0  0  0  0  0
   49.7761  -33.7966   23.4518 C   0  0  0  0  0  0
   48.5816  -34.6086   22.8605 C   0  0  0  0  0  0
   48.6659  -34.8487   21.3489 C   0  0  0  0  0  0
   49.1430  -33.7856   20.5139 C   0  0  0  0  0  0
   48.2793  -36.1009   20.7667 C   0  0  0  0  0  0
   49.2379  -33.9604   19.1202 C   0  0  0  0  0  0
   48.3705  -36.2866   19.3686 C   0  0  0  0  0  0
   48.8595  -35.1995   18.5119 C   0  0  0  0  0  0
   49.0058  -35.2454   17.0924 O   0  0  0  0  0  0
   51.6470  -35.7805   23.4523 C   0  0  0  0  0  0
   52.4875  -35.5930   22.2643 C   0  0  0  0  0  0
   53.2194  -36.7429   21.7877 C   0  0  0  0  0  0
   53.1311  -37.9985   22.4334 C   0  0  0  0  0  0
   52.3191  -38.1599   23.5707 C   0  0  0  0  0  0
   51.5918  -37.0795   24.0744 C   0  0  0  0  0  0
   52.5951  -33.9791   19.9526 C   0  0  0  0  0  0
   52.2530  -35.0559   19.0500 C   0  0  0  0  0  0
   52.1667  -34.8250   17.6467 C   0  0  0  0  0  0
   52.4198  -33.5205   17.1293 C   0  0  0  0  0  0
   52.7585  -32.4543   18.0107 C   0  0  0  0  0  0
   52.8451  -32.6810   19.4065 C   0  0  0  0  0  0
   52.6792  -34.2458   21.4477 C   0  0  0  0  0  0
   53.0072  -33.2340   22.1008 O   0  0  0  0  0  0
   45.4515  -37.5809   15.6982 O   0  0  0  0  0  0
   45.8532  -37.7588   17.0173 C   0  0  0  0  0  0
   47.2482  -37.5225   17.0138 N   0  0  0  0  0  0
   47.6093  -37.2289   15.7164 C   0  0  0  0  0  0
   46.4741  -37.2618   14.8308 C   0  0  0  0  0  0
   46.4079  -37.0080   13.3193 C   0  0  0  0  0  0
   45.0787  -38.1005   18.1256 C   0  0  0  0  0  0
   43.6585  -38.3422   18.0332 C   0  0  0  0  0  0
   42.9174  -38.6825   19.1947 C   0  0  0  0  0  0
   43.5698  -38.7851   20.4509 C   0  0  0  0  0  0
   44.9679  -38.5515   20.5575 C   0  0  0  0  0  0
   45.7188  -38.2097   19.4051 C   0  0  0  0  0  0
   49.8789  -36.2233   16.4771 C   0  0  0  0  0  0
   49.0990  -36.9163   15.3433 C   0  0  0  0  0  0
   48.1449  -32.3252   24.3050 O   0  0  0  0  0  0
   50.0705  -32.4554   25.4189 O   0  0  0  0  0  0
   49.2905  -32.8087   24.4754 C   0  0  0  0  0  0
   51.1126  -34.4569   24.9378 H   0  0  0  0  0  0
   49.7702  -32.4724   26.3063 H   0  0  0  0  0  0
  1  2  1  0  0  0
  1 11  1  0  0  0
  1 42  1  0  0  0
  2  3  1  0  0  0
  2 41  1  0  0  0
  3  4  1  0  0  0
  4  5  2  0  0  0
  4  6  1  0  0  0
  5  7  1  0  0  0
  6  8  2  0  0  0
  7  9  2  0  0  0
  8  9  1  0  0  0
  9 10  1  0  0  0
 10 37  1  0  0  0
 11 12  2  0  0  0
 11 16  1  0  0  0
 12 13  1  0  0  0
 12 23  1  0  0  0
 13 14  2  0  0  0
 14 15  1  0  0  0
 15 16  2  0  0  0
 17 18  2  0  0  0
 17 22  1  0  0  0
 17 23  1  0  0  0
 18 19  1  0  0  0
 19 20  2  0  0  0
 20 21  1  0  0  0
 21 22  2  0  0  0
 23 24  2  0  0  0
 25 26  1  0  0  0
 25 29  1  0  0  0
 26 27  2  0  0  0
 26 31  1  0  0  0
 27 28  1  0  0  0
 28 29  2  0  0  0
 28 38  1  0  0  0
 29 30  1  0  0  0
 31 32  2  0  0  0
 31 36  1  0  0  0
 32 33  1  0  0  0
 33 34  2  0  0  0
 34 35  1  0  0  0
 35 36  2  0  0  0
 37 38  1  0  0  0
 39 41  2  0  0  0
 40 41  1  0  0  0
 40 43  1  0  0  0
M  END
>  <CHROM.0>
-148.79617710,56.11423214,-152.41032114,-116.11778830

>  <CHROM.1>
53.30599867,60.17381863,-94.82580582,-158.24402341,-39.62304231,120.07302892
130.90154501,-130.95884305,2.07668647,0.61074265,-31.87206941,-40.59961335
-130.64408753,49.19546679,-35.70294364,19.89360487,0.77203057,0.43745689
1.46662758

>  <FORMUL>
      570    C34 H30 N2 O5

>  <HET>
 570  D 200      41

>  <HETNAM>
     570 2-(2-BENZOYL-PHENYLAMINO)-3-{4-[2-(5-METHYL-2-PHENYL-OX
   2 570 AZOL-4-YL)-ETHOXY]-PHENYL}-PROPIONIC ACID

>  <HETSYN>
     570 GI262570

>  <Name>
570.pdb

>  <RI>
0

>  <Rbt.Current_Directory>
/home/malgorzata/Desktop/rDOCK_IFD/test14

>  <Rbt.Executable>
rbdock ($Id: //depot/dev/client3/rdock/2013.1/src/exe/rbdock.cxx#4 $)

>  <Rbt.Library>
libRbt.so (2013.1, Build901 2013/11/27)

>  <Rbt.Parameter_File>
/home/malgorzata/Desktop/rDock_2013.1_src/data/scripts/soft_docking.prm

>  <Rbt.Receptor>
cavity.prm

>  <SCORE>
-20.5285

>  <SCORE.INTER>
-29.0874

>  <SCORE.INTER.CONST>
1

>  <SCORE.INTER.POLAR>
-1.22821

>  <SCORE.INTER.REPUL>
0.00491923

>  <SCORE.INTER.ROT>
12

>  <SCORE.INTER.VDW>
-42.3361

>  <SCORE.INTER.norm>
-0.70945

>  <SCORE.INTRA>
5.94898

>  <SCORE.INTRA.DIHEDRAL>
39.2236

>  <SCORE.INTRA.DIHEDRAL.0>
12.9748

>  <SCORE.INTRA.POLAR>
-0.00904782

>  <SCORE.INTRA.POLAR.0>
-0.058673

>  <SCORE.INTRA.REPUL>
0

>  <SCORE.INTRA.REPUL.0>
0

>  <SCORE.INTRA.VDW>
-1.86497

>  <SCORE.INTRA.VDW.0>
-4.98062

>  <SCORE.INTRA.norm>
0.145097

>  <SCORE.RESTR>
0.988975

>  <SCORE.RESTR.CAVITY>
0.988975

>  <SCORE.RESTR.norm>
0.0241213

>  <SCORE.SYSTEM>
1.62096

>  <SCORE.SYSTEM.CONST>
0

>  <SCORE.SYSTEM.DIHEDRAL>
8.79073

>  <SCORE.SYSTEM.POLAR>
-0.350568

>  <SCORE.SYSTEM.REPUL>
0.0467333

>  <SCORE.SYSTEM.VDW>
-1.81614

>  <SCORE.SYSTEM.norm>
0.0395355

>  <SCORE.heavy>
41

>  <SCORE.norm>
-0.500696

$$$$
570.pdb
  rDOCK(R)          3D
libRbt.so/2013.1/901 2013/11/27
 43 47  0  0  0  0  0  0  0  0999 V2000
   52.2515  -35.2957   17.8093 N   0  0  0  0  0  0
   51.5042  -35.1102   16.5101 C   0  0  0  0  0  0
   50.5570  -36.3039   16.1730 C   0  0  0  0  0  0
   49.3395  -36.4264   17.0962 C   0  0  0  0  0  0
   49.4787  -37.1666   18.3159 C   0  0  0  0  0  0
   48.0826  -35.8220   16.7624 C   0  0  0  0  0  0
   48.3879  -37.3055   19.1951 C   0  0  0  0  0  0
   46.9812  -35.9555   17.6381 C   0  0  0  0  0  0
   47.1220  -36.7126   18.8878 C   0  0  0  0  0  0
   46.1016  -36.9270   19.8632 O   0  0  0  0  0  0
   52.8175  -34.3625   18.7801 C   0  0  0  0  0  0
   52.2784  -34.2675   20.1414 C   0  0  0  0  0  0
   52.9034  -33.3180   21.0319 C   0  0  0  0  0  0
   53.9869  -32.5104   20.6136 C   0  0  0  0  0  0
   54.4898  -32.6143   19.3040 C   0  0  0  0  0  0
   53.9232  -33.5184   18.4030 C   0  0  0  0  0  0
   50.1365  -34.8043   21.8975 C   0  0  0  0  0  0
   49.5997  -33.4705   22.0521 C   0  0  0  0  0  0
   48.7173  -33.1649   23.1282 C   0  0  0  0  0  0
   48.3612  -34.1841   24.0599 C   0  0  0  0  0  0
   48.8860  -35.5002   23.9161 C   0  0  0  0  0  0
   49.7636  -35.8068   22.8470 C   0  0  0  0  0  0
   51.0746  -35.1105   20.7401 C   0  0  0  0  0  0
   50.8727  -36.2362   20.2400 O   0  0  0  0  0  0
   44.3067  -42.0353   18.8001 O   0  0  0  0  0  0
   45.4392  -42.3126   19.5575 C   0  0  0  0  0  0
   45.6926  -41.1290   20.2900 N   0  0  0  0  0  0
   44.7238  -40.2145   19.9363 C   0  0  0  0  0  0
   43.8086  -40.7611   18.9679 C   0  0  0  0  0  0
   42.5945  -40.1078   18.2954 C   0  0  0  0  0  0
   46.1894  -43.4872   19.6055 C   0  0  0  0  0  0
   47.5856  -43.5300   19.2409 C   0  0  0  0  0  0
   48.3004  -44.7543   19.3038 C   0  0  0  0  0  0
   47.6449  -45.9408   19.7241 C   0  0  0  0  0  0
   46.2709  -45.9143   20.0878 C   0  0  0  0  0  0
   45.5458  -44.6980   20.0279 C   0  0  0  0  0  0
   44.9001  -37.6581   19.5182 C   0  0  0  0  0  0
   44.7037  -38.7766   20.5595 C   0  0  0  0  0  0
   49.8256  -33.6753   17.3327 O   0  0  0  0  0  0
   51.0194  -32.9448   15.5987 O   0  0  0  0  0  0
   50.7476  -33.8115   16.4921 C   0  0  0  0  0  0
   52.3847  -36.2405   18.0520 H   0  0  0  0  0  0
   51.9107  -32.7100   15.4294 H   0  0  0  0  0  0
  1  2  1  0  0  0
  1 11  1  0  0  0
  1 42  1  0  0  0
  2  3  1  0  0  0
  2 41  1  0  0  0
  3  4  1  0  0  0
  4  5  2  0  0  0
  4  6  1  0  0  0
  5  7  1  0  0  0
  6  8  2  0  0  0
  7  9  2  0  0  0
  8  9  1  0  0  0
  9 10  1  0  0  0
 10 37  1  0  0  0
 11 12  2  0  0  0
 11 16  1  0  0  0
 12 13  1  0  0  0
 12 23  1  0  0  0
 13 14  2  0  0  0
 14 15  1  0  0  0
 15 16  2  0  0  0
 17 18  2  0  0  0
 17 22  1  0  0  0
 17 23  1  0  0  0
 18 19  1  0  0  0
 19 20  2  0  0  0
 20 21  1  0  0  0
 21 22  2  0  0  0
 23 24  2  0  0  0
 25 26  1  0  0  0
 25 29  1  0  0  0
 26 27  2  0  0  0
 26 31  1  0  0  0
 27 28  1  0  0  0
 28 29  2  0  0  0
 28 38  1  0  0  0
 29 30  1  0  0  0
 31 32  2  0  0  0
 31 36  1  0  0  0
 32 33  1  0  0  0
 33 34  2  0  0  0
 34 35  1  0  0  0
 35 36  2  0  0  0
 37 38  1  0  0  0
 39 41  2  0  0  0
 40 41  1  0  0  0
 40 43  1  0  0  0
M  END
>  <CHROM.0>
137.70926904,-98.82356810,135.32642408,105.81037978

>  <CHROM.1>
-153.29839559,114.12999219,69.24261588,-63.80133642,-86.80576495,-117.56755200
127.96807479,-156.22323076,42.25952283,119.14017897,117.34319062,-119.07691573
-48.11098772,48.68160296,-37.37910420,19.43512982,-0.57468239,-0.82884812
-2.31428517

>  <FORMUL>
      570    C34 H30 N2 O5

>  <HET>
 570  D 200      41

>  <HETNAM>
     570 2-(2-BENZOYL-PHENYLAMINO)-3-{4-[2-(5-METHYL-2-PHENYL-OX
   2 570 AZOL-4-YL)-ETHOXY]-PHENYL}-PROPIONIC ACID

>  <HETSYN>
     570 GI262570

>  <Name>
570.pdb

>  <RI>
0

>  <Rbt.Current_Directory>
/home/malgorzata/Desktop/rDOCK_IFD/test14

>  <Rbt.Executable>
rbdock ($Id: //depot/dev/client3/rdock/2013.1/src/exe/rbdock.cxx#4 $)

>  <Rbt.Library>
libRbt.so (2013.1, Build901 2013/11/27)

>  <Rbt.Parameter_File>
/home/malgorzata/Desktop/rDock_2013.1_src/data/scripts/soft_docking.prm

>  <Rbt.Receptor>
cavity.prm

>  <SCORE>
-4.18335

>  <SCORE.INTER>
-20.547

>  <SCORE.INTER.CONST>
1

>  <SCORE.INTER.POLAR>
-0.38509

>  <SCORE.INTER.REPUL>
0

>  <SCORE.INTER.ROT>
12

>  <SCORE.INTER.VDW>
-36.6377

>  <SCORE.INTER.norm>
-0.501147

>  <SCORE.INTRA>
10.435

>  <SCORE.INTRA.DIHEDRAL>
52.1289

>  <SCORE.INTRA.DIHEDRAL.0>
12.9748

>  <SCORE.INTRA.POLAR>
0.058673

>  <SCORE.INTRA.POLAR.0>
-0.058673

>  <SCORE.INTRA.REPUL>
0

>  <SCORE.INTRA.REPUL.0>
0

>  <SCORE.INTRA.VDW>
-0.190268

>  <SCORE.INTRA.VDW.0>
-4.98062

>  <SCORE.INTRA.norm>
0.254512

>  <SCORE.RESTR>
1.40257

>  <SCORE.RESTR.CAVITY>
1.40257

>  <SCORE.RESTR.norm>
0.0342089

>  <SCORE.SYSTEM>
4.52611

>  <SCORE.SYSTEM.CONST>
0

>  <SCORE.SYSTEM.DIHEDRAL>
17.8037

>  <SCORE.SYSTEM.POLAR>
-0.574932

>  <SCORE.SYSTEM.REPUL>
0.0467333

>  <SCORE.SYSTEM.VDW>
-2.65463

>  <SCORE.SYSTEM.norm>
0.110393

>  <SCORE.heavy>
41

>  <SCORE.norm>
-0.102033

$$$$
570.pdb
  rDOCK(R)          3D
libRbt.so/2013.1/901 2013/11/27
 43 47  0  0  0  0  0  0  0  0999 V2000
   49.6459  -35.3788   17.0290 N   0  0  0  0  0  0
   48.6832  -36.1189   16.1311 C   0  0  0  0  0  0
   47.5819  -36.8933   16.9207 C   0  0  0  0  0  0
   47.7645  -38.4151   16.9344 C   0  0  0  0  0  0
   49.0972  -38.9432   16.9503 C   0  0  0  0  0  0
   46.6397  -39.3045   16.9304 C   0  0  0  0  0  0
   49.3137  -40.3342   16.9637 C   0  0  0  0  0  0
   46.8460  -40.7027   16.9436 C   0  0  0  0  0  0
   48.2099  -41.2453   16.9605 C   0  0  0  0  0  0
   48.5672  -42.6275   16.9771 O   0  0  0  0  0  0
   49.6120  -34.0640   17.6645 C   0  0  0  0  0  0
   49.6751  -33.9274   19.1240 C   0  0  0  0  0  0
   49.6373  -32.5877   19.6618 C   0  0  0  0  0  0
   49.5411  -31.4535   18.8219 C   0  0  0  0  0  0
   49.4804  -31.6039   17.4246 C   0  0  0  0  0  0
   49.5155  -32.8772   16.8524 C   0  0  0  0  0  0
   50.1868  -35.0858   21.6451 C   0  0  0  0  0  0
   51.1434  -36.0494   22.1425 C   0  0  0  0  0  0
   51.5331  -36.0423   23.5130 C   0  0  0  0  0  0
   50.9744  -35.0759   24.4005 C   0  0  0  0  0  0
   50.0307  -34.1238   23.9195 C   0  0  0  0  0  0
   49.6414  -34.1287   22.5573 C   0  0  0  0  0  0
   49.7863  -35.1085   20.1780 C   0  0  0  0  0  0
   49.5712  -36.2627   19.7541 O   0  0  0  0  0  0
   48.3738  -40.2546   12.7640 O   0  0  0  0  0  0
   47.0629  -39.8274   12.9435 C   0  0  0  0  0  0
   46.4803  -40.7786   13.8138 N   0  0  0  0  0  0
   47.4488  -41.7164   14.1011 C   0  0  0  0  0  0
   48.6900  -41.4162   13.4353 C   0  0  0  0  0  0
   50.0206  -42.1792   13.4611 C   0  0  0  0  0  0
   46.4268  -38.7132   12.3967 C   0  0  0  0  0  0
   47.1327  -37.4925   12.0877 C   0  0  0  0  0  0
   46.4345  -36.3868   11.5364 C   0  0  0  0  0  0
   45.0400  -36.4769   11.2885 C   0  0  0  0  0  0
   44.3315  -37.6728   11.5862 C   0  0  0  0  0  0
   45.0172  -38.7836   12.1381 C   0  0  0  0  0  0
   48.3849  -43.4458   15.7963 C   0  0  0  0  0  0
   47.1433  -42.9311   15.0431 C   0  0  0  0  0  0
   48.6612  -35.0676   14.0222 O   0  0  0  0  0  0
   47.0087  -34.5526   15.4257 O   0  0  0  0  0  0
   48.0614  -35.2004   15.1166 C   0  0  0  0  0  0
   50.4654  -35.8873   17.2267 H   0  0  0  0  0  0
   46.5378  -34.7688   16.2064 H   0  0  0  0  0  0
  1  2  1  0  0  0
  1 11  1  0  0  0
  1 42  1  0  0  0
  2  3  1  0  0  0
  2 41  1  0  0  0
  3  4  1  0  0  0
  4  5  2  0  0  0
  4  6  1  0  0  0
  5  7  1  0  0  0
  6  8  2  0  0  0
  7  9  2  0  0  0
  8  9  1  0  0  0
  9 10  1  0  0  0
 10 37  1  0  0  0
 11 12  2  0  0  0
 11 16  1  0  0  0
 12 13  1  0  0  0
 12 23  1  0  0  0
 13 14  2  0  0  0
 14 15  1  0  0  0
 15 16  2  0  0  0
 17 18  2  0  0  0
 17 22  1  0  0  0
 17 23  1  0  0  0
 18 19  1  0  0  0
 19 20  2  0  0  0
 20 21  1  0  0  0
 21 22  2  0  0  0
 23 24  2  0  0  0
 25 26  1  0  0  0
 25 29  1  0  0  0
 26 27  2  0  0  0
 26 31  1  0  0  0
 27 28  1  0  0  0
 28 29  2  0  0  0
 28 38  1  0  0  0
 29 30  1  0  0  0
 31 32  2  0  0  0
 31 36  1  0  0  0
 32 33  1  0  0  0
 33 34  2  0  0  0
 34 35  1  0  0  0
 35 36  2  0  0  0
 37 38  1  0  0  0
 39 41  2  0  0  0
 40 41  1  0  0  0
 40 43  1  0  0  0
M  END
>  <CHROM.0>
-54.39264680,35.63822515,169.31528916,-118.10813065

>  <CHROM.1>
-84.98720839,119.90443092,-106.88275676,89.68039183,33.90937083,-108.22758428
-32.88929758,163.42930314,-132.80402569,-31.10998739,-151.47378324,83.71554187
-11.71332170,48.40121984,-37.38514901,16.62821724,0.66133105,-1.18318049
0.03777339

>  <FORMUL>
      570    C34 H30 N2 O5

>  <HET>
 570  D 200      41

>  <HETNAM>
     570 2-(2-BENZOYL-PHENYLAMINO)-3-{4-[2-(5-METHYL-2-PHENYL-OX
   2 570 AZOL-4-YL)-ETHOXY]-PHENYL}-PROPIONIC ACID

>  <HETSYN>
     570 GI262570

>  <Name>
570.pdb

>  <RI>
0

>  <Rbt.Current_Directory>
/home/malgorzata/Desktop/rDOCK_IFD/test14

>  <Rbt.Executable>
rbdock ($Id: //depot/dev/client3/rdock/2013.1/src/exe/rbdock.cxx#4 $)

>  <Rbt.Library>
libRbt.so (2013.1, Build901 2013/11/27)

>  <Rbt.Parameter_File>
/home/malgorzata/Desktop/rDock_2013.1_src/data/scripts/soft_docking.prm

>  <Rbt.Receptor>
cavity.prm

>  <SCORE>
-23.6935

>  <SCORE.INTER>
-31.3174

>  <SCORE.INTER.CONST>
1

>  <SCORE.INTER.POLAR>
-0.965128

>  <SCORE.INTER.REPUL>
0

>  <SCORE.INTER.ROT>
12

>  <SCORE.INTER.VDW>
-45.4359

>  <SCORE.INTER.norm>
-0.763838

>  <SCORE.INTRA>
6.74797

>  <SCORE.INTRA.DIHEDRAL>
27.5753

>  <SCORE.INTRA.DIHEDRAL.0>
12.9748

>  <SCORE.INTRA.POLAR>
0.058673

>  <SCORE.INTRA.POLAR.0>
-0.058673

>  <SCORE.INTRA.REPUL>
0

>  <SCORE.INTRA.REPUL.0>
0

>  <SCORE.INTRA.VDW>
1.03342

>  <SCORE.INTRA.VDW.0>
-4.98062

>  <SCORE.INTRA.norm>
0.164585

>  <SCORE.RESTR>
0.368698

>  <SCORE.RESTR.CAVITY>
0.368698

>  <SCORE.RESTR.norm>
0.00899263

>  <SCORE.SYSTEM>
0.507246

>  <SCORE.SYSTEM.CONST>
0

>  <SCORE.SYSTEM.DIHEDRAL>
6.64005

>  <SCORE.SYSTEM.POLAR>
-0.334538

>  <SCORE.SYSTEM.REPUL>
0.0467333

>  <SCORE.SYSTEM.VDW>
-1.90902

>  <SCORE.SYSTEM.norm>
0.0123719

>  <SCORE.heavy>
41

>  <SCORE.norm>
-0.577889

$$$$
570.pdb
  rDOCK(R)          3D
libRbt.so/2013.1/901 2013/11/27
 43 47  0  0  0  0  0  0  0  0999 V2000
   47.5789  -35.7530   16.5828 N   0  0  0  0  0  0
   48.5702  -34.6552   16.8877 C   0  0  0  0  0  0
   49.8975  -35.1857   17.5144 C   0  0  0  0  0  0
   50.1359  -34.7418   18.9620 C   0  0  0  0  0  0
   49.9605  -35.7047   20.0095 C   0  0  0  0  0  0
   50.5244  -33.3984   19.2792 C   0  0  0  0  0  0
   50.1688  -35.3427   21.3540 C   0  0  0  0  0  0
   50.7358  -33.0246   20.6258 C   0  0  0  0  0  0
   50.5573  -34.0093   21.6997 C   0  0  0  0  0  0
   50.7373  -33.7753   23.0966 O   0  0  0  0  0  0
   47.5073  -36.7759   15.5426 C   0  0  0  0  0  0
   47.5631  -38.2029   15.8796 C   0  0  0  0  0  0
   47.4832  -39.1413   14.7850 C   0  0  0  0  0  0
   47.3592  -38.7082   13.4439 C   0  0  0  0  0  0
   47.3085  -37.3357   13.1396 C   0  0  0  0  0  0
   47.3796  -36.3860   14.1609 C   0  0  0  0  0  0
   46.7750  -39.7646   18.0932 C   0  0  0  0  0  0
   45.5081  -39.2781   18.5924 C   0  0  0  0  0  0
   44.6288  -40.1447   19.3037 C   0  0  0  0  0  0
   45.0025  -41.5031   19.5242 C   0  0  0  0  0  0
   46.2488  -41.9905   19.0371 C   0  0  0  0  0  0
   47.1251  -41.1311   18.3296 C   0  0  0  0  0  0
   47.6980  -38.8240   17.3337 C   0  0  0  0  0  0
   48.6800  -38.4591   18.0123 O   0  0  0  0  0  0
   54.3484  -35.9981   23.5754 O   0  0  0  0  0  0
   53.7986  -35.6431   22.3487 C   0  0  0  0  0  0
   52.4128  -35.4964   22.5935 N   0  0  0  0  0  0
   52.2021  -35.7739   23.9271 C   0  0  0  0  0  0
   53.4313  -36.1094   24.5984 C   0  0  0  0  0  0
   53.6696  -36.4896   26.0654 C   0  0  0  0  0  0
   54.4417  -35.4664   21.1239 C   0  0  0  0  0  0
   53.9812  -34.5188   20.1370 C   0  0  0  0  0  0
   54.6713  -34.3831   18.9044 C   0  0  0  0  0  0
   55.8154  -35.1793   18.6374 C   0  0  0  0  0  0
   56.2817  -36.1156   19.6000 C   0  0  0  0  0  0
   55.6005  -36.2614   20.8342 C   0  0  0  0  0  0
   49.9449  -34.4989   24.0689 C   0  0  0  0  0  0
   50.7643  -35.7125   24.5479 C   0  0  0  0  0  0
   49.4161  -34.3891   14.7043 O   0  0  0  0  0  0
   48.5850  -32.5741   15.6945 O   0  0  0  0  0  0
   48.8552  -33.8190   15.6715 C   0  0  0  0  0  0
   46.8255  -35.7860   17.2157 H   0  0  0  0  0  0
   48.1708  -32.1984   16.4464 H   0  0  0  0  0  0
  1  2  1  0  0  0
  1 11  1  0  0  0
  1 42  1  0  0  0
  2  3  1  0  0  0
  2 41  1  0  0  0
  3  4  1  0  0  0
  4  5  2  0  0  0
  4  6  1  0  0  0
  5  7  1  0  0  0
  6  8  2  0  0  0
  7  9  2  0  0  0
  8  9  1  0  0  0
  9 10  1  0  0  0
 10 37  1  0  0  0
 11 12  2  0  0  0
 11 16  1  0  0  0
 12 13  1  0  0  0
 12 23  1  0  0  0
 13 14  2  0  0  0
 14 15  1  0  0  0
 15 16  2  0  0  0
 17 18  2  0  0  0
 17 22  1  0  0  0
 17 23  1  0  0  0
 18 19  1  0  0  0
 19 20  2  0  0  0
 20 21  1  0  0  0
 21 22  2  0  0  0
 23 24  2  0  0  0
 25 26  1  0  0  0
 25 29  1  0  0  0
 26 27  2  0  0  0
 26 31  1  0  0  0
 27 28  1  0  0  0
 28 29  2  0  0  0
 28 38  1  0  0  0
 29 30  1  0  0  0
 31 32  2  0  0  0
 31 36  1  0  0  0
 32 33  1  0  0  0
 33 34  2  0  0  0
 34 35  1  0  0  0
 35 36  2  0  0  0
 37 38  1  0  0  0
 39 41  2  0  0  0
 40 41  1  0  0  0
 40 43  1  0  0  0
M  END
>  <CHROM.0>
-60.33470346,64.83572914,37.81347681,-179.55958502

>  <CHROM.1>
-74.50288581,116.89891698,-114.03697696,-64.33193313,106.00842257,-31.52499844
95.92024666,120.17933356,-71.37606846,-148.48785720,-42.29522193,3.02175813
-3.27048808,50.08945367,-36.32935521,19.24571815,-2.62824680,0.69670680,1.99167972

>  <FORMUL>
      570    C34 H30 N2 O5

>  <HET>
 570  D 200      41

>  <HETNAM>
     570 2-(2-BENZOYL-PHENYLAMINO)-3-{4-[2-(5-METHYL-2-PHENYL-OX
   2 570 AZOL-4-YL)-ETHOXY]-PHENYL}-PROPIONIC ACID

>  <HETSYN>
     570 GI262570

>  <Name>
570.pdb

>  <RI>
0

>  <Rbt.Current_Directory>
/home/malgorzata/Desktop/rDOCK_IFD/test14

>  <Rbt.Executable>
rbdock ($Id: //depot/dev/client3/rdock/2013.1/src/exe/rbdock.cxx#4 $)

>  <Rbt.Library>
libRbt.so (2013.1, Build901 2013/11/27)

>  <Rbt.Parameter_File>
/home/malgorzata/Desktop/rDock_2013.1_src/data/scripts/soft_docking.prm

>  <Rbt.Receptor>
cavity.prm

>  <SCORE>
-17.3598

>  <SCORE.INTER>
-28.4001

>  <SCORE.INTER.CONST>
1

>  <SCORE.INTER.POLAR>
-0.94106

>  <SCORE.INTER.REPUL>
0

>  <SCORE.INTER.ROT>
12

>  <SCORE.INTER.VDW>
-42.6005

>  <SCORE.INTER.norm>
-0.692686

>  <SCORE.INTRA>
11.6143

>  <SCORE.INTRA.DIHEDRAL>
44.3713

>  <SCORE.INTRA.DIHEDRAL.0>
12.9748

>  <SCORE.INTRA.POLAR>
0.058673

>  <SCORE.INTRA.POLAR.0>
-0.058673

>  <SCORE.INTRA.REPUL>
0

>  <SCORE.INTRA.REPUL.0>
0

>  <SCORE.INTRA.VDW>
2.5406

>  <SCORE.INTRA.VDW.0>
-4.98062

>  <SCORE.INTRA.norm>
0.283277

>  <SCORE.RESTR>
0.30248

>  <SCORE.RESTR.CAVITY>
0.30248

>  <SCORE.RESTR.norm>
0.00737757

>  <SCORE.SYSTEM>
-0.876536

>  <SCORE.SYSTEM.CONST>
0

>  <SCORE.SYSTEM.DIHEDRAL>
1.88603

>  <SCORE.SYSTEM.POLAR>
-0.119092

>  <SCORE.SYSTEM.REPUL>
0.0467333

>  <SCORE.SYSTEM.VDW>
-1.64831

>  <SCORE.SYSTEM.norm>
-0.0213789

>  <SCORE.heavy>
41

>  <SCORE.norm>
-0.42341

$$$$
570.pdb
  rDOCK(R)          3D
libRbt.so/2013.1/901 2013/11/27
 43 47  0  0  0  0  0  0  0  0999 V2000
   50.3813  -36.1355   19.9309 N   0  0  0  0  0  0
   49.4161  -34.9944   20.1474 C   0  0  0  0  0  0
   47.9207  -35.4334   20.0645 C   0  0  0  0  0  0
   47.5248  -36.0847   18.7346 C   0  0  0  0  0  0
   48.3290  -37.1611   18.2349 C   0  0  0  0  0  0
   46.3807  -35.6392   17.9937 C   0  0  0  0  0  0
   48.0037  -37.7899   17.0180 C   0  0  0  0  0  0
   46.0456  -36.2635   16.7708 C   0  0  0  0  0  0
   46.8674  -37.3664   16.2578 C   0  0  0  0  0  0
   46.6485  -38.0878   15.0453 O   0  0  0  0  0  0
   51.8319  -36.2559   20.0533 C   0  0  0  0  0  0
   52.7304  -35.5194   19.1571 C   0  0  0  0  0  0
   54.1495  -35.6995   19.3545 C   0  0  0  0  0  0
   54.6561  -36.5500   20.3651 C   0  0  0  0  0  0
   53.7793  -37.2492   21.2143 C   0  0  0  0  0  0
   52.3977  -37.1091   21.0677 C   0  0  0  0  0  0
   51.5465  -34.8102   16.6964 C   0  0  0  0  0  0
   51.0392  -36.1379   16.4301 C   0  0  0  0  0  0
   50.3293  -36.4142   15.2260 C   0  0  0  0  0  0
   50.1178  -35.3715   14.2764 C   0  0  0  0  0  0
   50.6148  -34.0612   14.5299 C   0  0  0  0  0  0
   51.3211  -33.7836   15.7263 C   0  0  0  0  0  0
   52.2992  -34.5354   17.9892 C   0  0  0  0  0  0
   52.6695  -33.3476   18.0890 O   0  0  0  0  0  0
   48.6089  -42.1193   14.3827 O   0  0  0  0  0  0
   48.5226  -41.7052   15.7071 C   0  0  0  0  0  0
   48.5622  -40.2919   15.6557 N   0  0  0  0  0  0
   48.6771  -39.9346   14.3294 C   0  0  0  0  0  0
   48.7165  -41.0907   13.4714 C   0  0  0  0  0  0
   48.8422  -41.1689   11.9446 C   0  0  0  0  0  0
   48.4229  -42.4848   16.8592 C   0  0  0  0  0  0
   47.8071  -42.0001   18.0715 C   0  0  0  0  0  0
   47.7367  -42.8348   19.2170 C   0  0  0  0  0  0
   48.2726  -44.1483   19.1749 C   0  0  0  0  0  0
   48.8807  -44.6403   17.9880 C   0  0  0  0  0  0
   48.9583  -43.8159   16.8377 C   0  0  0  0  0  0
   47.3779  -37.7398   13.8437 C   0  0  0  0  0  0
   48.7548  -38.4288   13.9019 C   0  0  0  0  0  0
   50.8460  -33.8281   21.6132 O   0  0  0  0  0  0
   48.7740  -34.2292   22.3285 O   0  0  0  0  0  0
   49.6886  -34.2826   21.4430 C   0  0  0  0  0  0
   49.9423  -36.9705   19.6493 H   0  0  0  0  0  0
   48.8483  -33.6277   23.0431 H   0  0  0  0  0  0
  1  2  1  0  0  0
  1 11  1  0  0  0
  1 42  1  0  0  0
  2  3  1  0  0  0
  2 41  1  0  0  0
  3  4  1  0  0  0
  4  5  2  0  0  0
  4  6  1  0  0  0
  5  7  1  0  0  0
  6  8  2  0  0  0
  7  9  2  0  0  0
  8  9  1  0  0  0
  9 10  1  0  0  0
 10 37  1  0  0  0
 11 12  2  0  0  0
 11 16  1  0  0  0
 12 13  1  0  0  0
 12 23  1  0  0  0
 13 14  2  0  0  0
 14 15  1  0  0  0
 15 16  2  0  0  0
 17 18  2  0  0  0
 17 22  1  0  0  0
 17 23  1  0  0  0
 18 19  1  0  0  0
 19 20  2  0  0  0
 20 21  1  0  0  0
 21 22  2  0  0  0
 23 24  2  0  0  0
 25 26  1  0  0  0
 25 29  1  0  0  0
 26 27  2  0  0  0
 26 31  1  0  0  0
 27 28  1  0  0  0
 28 29  2  0  0  0
 28 38  1  0  0  0
 29 30  1  0  0  0
 31 32  2  0  0  0
 31 36  1  0  0  0
 32 33  1  0  0  0
 33 34  2  0  0  0
 34 35  1  0  0  0
 35 36  2  0  0  0
 37 38  1  0  0  0
 39 41  2  0  0  0
 40 41  1  0  0  0
 40 43  1  0  0  0
M  END
>  <CHROM.0>
-61.55070945,150.71088988,-26.97880201,-174.04576782

>  <CHROM.1>
-172.28451556,-66.04038339,-58.12724763,56.03813094,50.93549984,-82.48312084
82.94178614,-64.91471490,3.78662006,-153.81589430,-80.76918045,46.08643297
-165.45000675,49.60271466,-37.68672509,17.50251226,-0.34380406,1.17040453
2.47861881

>  <FORMUL>
      570    C34 H30 N2 O5

>  <HET>
 570  D 200      41

>  <HETNAM>
     570 2-(2-BENZOYL-PHENYLAMINO)-3-{4-[2-(5-METHYL-2-PHENYL-OX
   2 570 AZOL-4-YL)-ETHOXY]-PHENYL}-PROPIONIC ACID

>  <HETSYN>
     570 GI262570

>  <Name>
570.pdb

>  <RI>
0

>  <Rbt.Current_Directory>
/home/malgorzata/Desktop/rDOCK_IFD/test14

>  <Rbt.Executable>
rbdock ($Id: //depot/dev/client3/rdock/2013.1/src/exe/rbdock.cxx#4 $)

>  <Rbt.Library>
libRbt.so (2013.1, Build901 2013/11/27)

>  <Rbt.Parameter_File>
/home/malgorzata/Desktop/rDock_2013.1_src/data/scripts/soft_docking.prm

>  <Rbt.Receptor>
cavity.prm

>  <SCORE>
-11.7392

>  <SCORE.INTER>
-19.8374

>  <SCORE.INTER.CONST>
1

>  <SCORE.INTER.POLAR>
-0.278571

>  <SCORE.INTER.REPUL>
0

>  <SCORE.INTER.ROT>
12

>  <SCORE.INTER.VDW>
-36.2902

>  <SCORE.INTER.norm>
-0.483839

>  <SCORE.INTRA>
7.57353

>  <SCORE.INTRA.DIHEDRAL>
26.4245

>  <SCORE.INTRA.DIHEDRAL.0>
12.9748

>  <SCORE.INTRA.POLAR>
0.058673

>  <SCORE.INTRA.POLAR.0>
-0.058673

>  <SCORE.INTRA.REPUL>
0

>  <SCORE.INTRA.REPUL.0>
0

>  <SCORE.INTRA.VDW>
2.08914

>  <SCORE.INTRA.VDW.0>
-4.98062

>  <SCORE.INTRA.norm>
0.18472

>  <SCORE.RESTR>
0.377535

>  <SCORE.RESTR.CAVITY>
0.377535

>  <SCORE.RESTR.norm>
0.00920818

>  <SCORE.SYSTEM>
0.14715

>  <SCORE.SYSTEM.CONST>
0

>  <SCORE.SYSTEM.DIHEDRAL>
4.55194

>  <SCORE.SYSTEM.POLAR>
-0.0869258

>  <SCORE.SYSTEM.REPUL>
0.0467333

>  <SCORE.SYSTEM.VDW>
-2.06694

>  <SCORE.SYSTEM.norm>
0.00358903

>  <SCORE.heavy>
41

>  <SCORE.norm>
-0.286321

$$$$
570.pdb
  rDOCK(R)          3D
libRbt.so/2013.1/901 2013/11/27
 43 47  0  0  0  0  0  0  0  0999 V2000
   45.3777  -37.9910   21.1131 N   0  0  0  0  0  0
   44.8472  -39.2791   21.6964 C   0  0  0  0  0  0
   44.2891  -40.2565   20.6152 C   0  0  0  0  0  0
   45.2824  -41.3316   20.1603 C   0  0  0  0  0  0
   46.0657  -41.0848   18.9853 C   0  0  0  0  0  0
   45.4364  -42.5620   20.8807 C   0  0  0  0  0  0
   46.9911  -42.0431   18.5301 C   0  0  0  0  0  0
   46.3625  -43.5308   20.4320 C   0  0  0  0  0  0
   47.1660  -43.2796   19.2294 C   0  0  0  0  0  0
   48.1361  -44.1616   18.6643 O   0  0  0  0  0  0
   45.2197  -37.3407   19.8147 C   0  0  0  0  0  0
   46.0285  -36.1720   19.4504 C   0  0  0  0  0  0
   45.8040  -35.5973   18.1448 C   0  0  0  0  0  0
   44.8450  -36.1329   17.2534 C   0  0  0  0  0  0
   44.0777  -37.2533   17.6204 C   0  0  0  0  0  0
   44.2565  -37.8490   18.8706 C   0  0  0  0  0  0
   48.3326  -34.6234   19.9532 C   0  0  0  0  0  0
   49.5775  -35.2625   19.5887 C   0  0  0  0  0  0
   50.7093  -34.4828   19.2130 C   0  0  0  0  0  0
   50.6121  -33.0602   19.1965 C   0  0  0  0  0  0
   49.3904  -32.4222   19.5551 C   0  0  0  0  0  0
   48.2635  -33.1950   19.9292 C   0  0  0  0  0  0
   47.1352  -35.4740   20.3484 C   0  0  0  0  0  0
   47.0754  -35.6818   21.5777 O   0  0  0  0  0  0
   47.5369  -42.8431   13.1417 O   0  0  0  0  0  0
   47.6573  -41.5213   13.5557 C   0  0  0  0  0  0
   48.2104  -41.5903   14.8560 N   0  0  0  0  0  0
   48.3831  -42.9245   15.1561 C   0  0  0  0  0  0
   47.9533  -43.7704   14.0727 C   0  0  0  0  0  0
   47.9557  -45.3010   13.9696 C   0  0  0  0  0  0
   47.3133  -40.3579   12.8678 C   0  0  0  0  0  0
   48.2860  -39.3526   12.5114 C   0  0  0  0  0  0
   47.8800  -38.1846   11.8149 C   0  0  0  0  0  0
   46.5162  -38.0005   11.4678 C   0  0  0  0  0  0
   45.5470  -38.9823   11.8106 C   0  0  0  0  0  0
   45.9398  -40.1524   12.5072 C   0  0  0  0  0  0
   48.1288  -44.4461   17.2444 C   0  0  0  0  0  0
   48.9766  -43.3723   16.5357 C   0  0  0  0  0  0
   46.9414  -40.3216   21.9806 O   0  0  0  0  0  0
   45.6166  -40.2103   23.7689 O   0  0  0  0  0  0
   45.8803  -39.9635   22.5471 C   0  0  0  0  0  0
   45.9475  -37.4852   21.7366 H   0  0  0  0  0  0
   45.1800  -39.5680   24.2931 H   0  0  0  0  0  0
  1  2  1  0  0  0
  1 11  1  0  0  0
  1 42  1  0  0  0
  2  3  1  0  0  0
  2 41  1  0  0  0
  3  4  1  0  0  0
  4  5  2  0  0  0
  4  6  1  0  0  0
  5  7  1  0  0  0
  6  8  2  0  0  0
  7  9  2  0  0  0
  8  9  1  0  0  0
  9 10  1  0  0  0
 10 37  1  0  0  0
 11 12  2  0  0  0
 11 16  1  0  0  0
 12 13  1  0  0  0
 12 23  1  0  0  0
 13 14  2  0  0  0
 14 15  1  0  0  0
 15 16  2  0  0  0
 17 18  2  0  0  0
 17 22  1  0  0  0
 17 23  1  0  0  0
 18 19  1  0  0  0
 19 20  2  0  0  0
 20 21  1  0  0  0
 21 22  2  0  0  0
 23 24  2  0  0  0
 25 26  1  0  0  0
 25 29  1  0  0  0
 26 27  2  0  0  0
 26 31  1  0  0  0
 27 28  1  0  0  0
 28 29  2  0  0  0
 28 38  1  0  0  0
 29 30  1  0  0  0
 31 32  2  0  0  0
 31 36  1  0  0  0
 32 33  1  0  0  0
 33 34  2  0  0  0
 34 35  1  0  0  0
 35 36  2  0  0  0
 37 38  1  0  0  0
 39 41  2  0  0  0
 40 41  1  0  0  0
 40 43  1  0  0  0
M  END
>  <CHROM.0>
13.39867747,-157.98097545,-60.81119021,7.87843400

>  <CHROM.1>
15.96261149,-170.51046157,96.44291264,-61.57526137,-94.85341624,-47.87078279
87.75479700,155.82724276,-84.95763457,-118.23253736,129.61766091,-141.79010788
-42.14473781,46.97736627,-39.36970589,17.88016247,1.72626157,1.36406220,0.61437386

>  <FORMUL>
      570    C34 H30 N2 O5

>  <HET>
 570  D 200      41

>  <HETNAM>
     570 2-(2-BENZOYL-PHENYLAMINO)-3-{4-[2-(5-METHYL-2-PHENYL-OX
   2 570 AZOL-4-YL)-ETHOXY]-PHENYL}-PROPIONIC ACID

>  <HETSYN>
     570 GI262570

>  <Name>
570.pdb

>  <RI>
0

>  <Rbt.Current_Directory>
/home/malgorzata/Desktop/rDOCK_IFD/test14

>  <Rbt.Executable>
rbdock ($Id: //depot/dev/client3/rdock/2013.1/src/exe/rbdock.cxx#4 $)

>  <Rbt.Library>
libRbt.so (2013.1, Build901 2013/11/27)

>  <Rbt.Parameter_File>
/home/malgorzata/Desktop/rDock_2013.1_src/data/scripts/soft_docking.prm

>  <Rbt.Receptor>
cavity.prm

>  <SCORE>
-5.04034

>  <SCORE.INTER>
-20.749

>  <SCORE.INTER.CONST>
1

>  <SCORE.INTER.POLAR>
-0.0859873

>  <SCORE.INTER.REPUL>
0

>  <SCORE.INTER.ROT>
12

>  <SCORE.INTER.VDW>
-37.8566

>  <SCORE.INTER.norm>
-0.506073

>  <SCORE.INTRA>
10.4762

>  <SCORE.INTRA.DIHEDRAL>
42.9588

>  <SCORE.INTRA.DIHEDRAL.0>
12.9748

>  <SCORE.INTRA.POLAR>
0.058673

>  <SCORE.INTRA.POLAR.0>
-0.058673

>  <SCORE.INTRA.REPUL>
0

>  <SCORE.INTRA.REPUL.0>
0

>  <SCORE.INTRA.VDW>
1.68493

>  <SCORE.INTRA.VDW.0>
-4.98062

>  <SCORE.INTRA.norm>
0.255516

>  <SCORE.RESTR>
1.49903

>  <SCORE.RESTR.CAVITY>
1.49903

>  <SCORE.RESTR.norm>
0.0365617

>  <SCORE.SYSTEM>
3.73345

>  <SCORE.SYSTEM.CONST>
0

>  <SCORE.SYSTEM.DIHEDRAL>
12.2745

>  <SCORE.SYSTEM.POLAR>
-0.0260679

>  <SCORE.SYSTEM.REPUL>
0.0467333

>  <SCORE.SYSTEM.VDW>
-2.54882

>  <SCORE.SYSTEM.norm>
0.0910599

>  <SCORE.heavy>
41

>  <SCORE.norm>
-0.122935

$$$$
