570.pdb
  rDOCK(R)          3D
libRbt.so/2013.1/901 2013/11/27
 43 47  0  0  0  0  0  0  0  0999 V2000
   49.1402  -33.9796   17.7665 N   0  0  0  0  0  0
   49.1894  -34.4410   16.3293 C   0  0  0  0  0  0
   47.8239  -34.2860   15.5895 C   0  0  0  0  0  0
   47.1284  -35.6115   15.2599 C   0  0  0  0  0  0
   45.9538  -35.9692   15.9998 C   0  0  0  0  0  0
   47.6281  -36.4861   14.2392 C   0  0  0  0  0  0
   45.2813  -37.1766   15.7316 C   0  0  0  0  0  0
   46.9606  -37.7007   13.9622 C   0  0  0  0  0  0
   45.7573  -38.0684   14.7184 C   0  0  0  0  0  0
   44.9833  -39.2557   14.5462 O   0  0  0  0  0  0
   49.8659  -34.3770   18.9703 C   0  0  0  0  0  0
   49.1586  -34.9206   20.1352 C   0  0  0  0  0  0
   49.9597  -35.2878   21.2792 C   0  0  0  0  0  0
   51.3655  -35.1295   21.2821 C   0  0  0  0  0  0
   52.0264  -34.6053   20.1564 C   0  0  0  0  0  0
   51.2993  -34.2364   19.0228 C   0  0  0  0  0  0
   46.8162  -36.3108   20.8705 C   0  0  0  0  0  0
   47.4738  -37.2146   21.7880 C   0  0  0  0  0  0
   46.7612  -38.3039   22.3675 C   0  0  0  0  0  0
   45.3878  -38.5031   22.0392 C   0  0  0  0  0  0
   44.7324  -37.6186   21.1357 C   0  0  0  0  0  0
   45.4386  -36.5347   20.5579 C   0  0  0  0  0  0
   47.5940  -35.1524   20.2651 C   0  0  0  0  0  0
   46.8530  -34.2912   19.7481 O   0  0  0  0  0  0
   49.4303  -41.8391   16.4262 O   0  0  0  0  0  0
   48.8890  -43.0948   16.6777 C   0  0  0  0  0  0
   47.4948  -42.9400   16.4929 N   0  0  0  0  0  0
   47.2716  -41.6225   16.1548 C   0  0  0  0  0  0
   48.5005  -40.8731   16.1062 C   0  0  0  0  0  0
   48.7274  -39.3909   15.7825 C   0  0  0  0  0  0
   49.5460  -44.2704   17.0402 C   0  0  0  0  0  0
   50.9848  -44.3620   17.1148 C   0  0  0  0  0  0
   51.6018  -45.5853   17.4849 C   0  0  0  0  0  0
   50.8065  -46.7228   17.7814 C   0  0  0  0  0  0
   49.3886  -46.6476   17.7137 C   0  0  0  0  0  0
   48.7606  -45.4320   17.3443 C   0  0  0  0  0  0
   45.6328  -40.5466   14.4525 C   0  0  0  0  0  0
   45.8222  -41.0930   15.8806 C   0  0  0  0  0  0
   50.1253  -32.5325   15.3118 O   0  0  0  0  0  0
   51.2843  -34.4297   15.1604 O   0  0  0  0  0  0
   50.2863  -33.7506   15.5679 C   0  0  0  0  0  0
   48.4836  -33.2633   17.9246 H   0  0  0  0  0  0
   52.0023  -34.0004   14.7383 H   0  0  0  0  0  0
  1  2  1  0  0  0
  1 11  1  0  0  0
  1 42  1  0  0  0
  2  3  1  0  0  0
  2 41  1  0  0  0
  3  4  1  0  0  0
  4  5  2  0  0  0
  4  6  1  0  0  0
  5  7  1  0  0  0
  6  8  2  0  0  0
  7  9  2  0  0  0
  8  9  1  0  0  0
  9 10  1  0  0  0
 10 37  1  0  0  0
 11 12  2  0  0  0
 11 16  1  0  0  0
 12 13  1  0  0  0
 12 23  1  0  0  0
 13 14  2  0  0  0
 14 15  1  0  0  0
 15 16  2  0  0  0
 17 18  2  0  0  0
 17 22  1  0  0  0
 17 23  1  0  0  0
 18 19  1  0  0  0
 19 20  2  0  0  0
 20 21  1  0  0  0
 21 22  2  0  0  0
 23 24  2  0  0  0
 25 26  1  0  0  0
 25 29  1  0  0  0
 26 27  2  0  0  0
 26 31  1  0  0  0
 27 28  1  0  0  0
 28 29  2  0  0  0
 28 38  1  0  0  0
 29 30  1  0  0  0
 31 32  2  0  0  0
 31 36  1  0  0  0
 32 33  1  0  0  0
 33 34  2  0  0  0
 34 35  1  0  0  0
 35 36  2  0  0  0
 37 38  1  0  0  0
 39 41  2  0  0  0
 40 41  1  0  0  0
 40 43  1  0  0  0
M  END
>  <CHROM.0>
-78.81295961,163.85845542,-13.72401423,-123.39566332

>  <CHROM.1>
150.55867740,-119.23402488,-110.40181421,-70.76697936,108.23927386,-133.32516550
87.12904482,138.62058204,18.67869743,-4.77576397,-119.05611843,-131.77631020
-175.67229398,48.27791439,-38.25235385,17.55605134,1.63199226,-1.39048140
0.20770143

>  <FORMUL>
      570    C34 H30 N2 O5

>  <HET>
 570  D 200      41

>  <HETNAM>
     570 2-(2-BENZOYL-PHENYLAMINO)-3-{4-[2-(5-METHYL-2-PHENYL-OX
   2 570 AZOL-4-YL)-ETHOXY]-PHENYL}-PROPIONIC ACID

>  <HETSYN>
     570 GI262570

>  <Name>
570.pdb

>  <RI>
0

>  <Rbt.Current_Directory>
/home/malgorzata/Desktop/rDOCK_IFD/Wyniki/14a_ppar-gamma

>  <Rbt.Executable>
rbdock ($Id: //depot/dev/client3/rdock/2013.1/src/exe/rbdock.cxx#4 $)

>  <Rbt.Library>
libRbt.so (2013.1, Build901 2013/11/27)

>  <Rbt.Parameter_File>
/home/malgorzata/Desktop/rDock_2013.1_src/data/scripts/soft_docking.prm

>  <Rbt.Receptor>
cavity.prm

>  <SCORE>
-5.41262

>  <SCORE.INTER>
-14.2591

>  <SCORE.INTER.CONST>
1

>  <SCORE.INTER.POLAR>
0

>  <SCORE.INTER.REPUL>
0.0283113

>  <SCORE.INTER.ROT>
12

>  <SCORE.INTER.VDW>
-31.8007

>  <SCORE.INTER.norm>
-0.347784

>  <SCORE.INTRA>
6.01872

>  <SCORE.INTRA.DIHEDRAL>
27.1818

>  <SCORE.INTRA.DIHEDRAL.0>
12.9748

>  <SCORE.INTRA.POLAR>
0.058673

>  <SCORE.INTRA.POLAR.0>
-0.058673

>  <SCORE.INTRA.REPUL>
0

>  <SCORE.INTRA.REPUL.0>
0

>  <SCORE.INTRA.VDW>
0.38286

>  <SCORE.INTRA.VDW.0>
-4.98062

>  <SCORE.INTRA.norm>
0.146798

>  <SCORE.RESTR>
2.52519

>  <SCORE.RESTR.CAVITY>
0.505038

>  <SCORE.RESTR.norm>
0.06159

>  <SCORE.SYSTEM>
0.302612

>  <SCORE.SYSTEM.CONST>
0

>  <SCORE.SYSTEM.DIHEDRAL>
6.47631

>  <SCORE.SYSTEM.POLAR>
-0.291885

>  <SCORE.SYSTEM.REPUL>
0.0467333

>  <SCORE.SYSTEM.VDW>
-2.1768

>  <SCORE.SYSTEM.norm>
0.00738079

>  <SCORE.heavy>
41

>  <SCORE.norm>
-0.132015

$$$$
570.pdb
  rDOCK(R)          3D
libRbt.so/2013.1/901 2013/11/27
 43 47  0  0  0  0  0  0  0  0999 V2000
   44.6716  -39.8768   16.2765 N   0  0  0  0  0  0
   44.7754  -40.1026   17.7662 C   0  0  0  0  0  0
   46.1518  -39.6644   18.3572 C   0  0  0  0  0  0
   46.7012  -38.3554   17.7791 C   0  0  0  0  0  0
   45.8593  -37.1952   17.7946 C   0  0  0  0  0  0
   48.0237  -38.2757   17.2304 C   0  0  0  0  0  0
   46.3213  -35.9710   17.2750 C   0  0  0  0  0  0
   48.4972  -37.0516   16.7061 C   0  0  0  0  0  0
   47.6368  -35.8623   16.7216 C   0  0  0  0  0  0
   47.9809  -34.5663   16.2313 O   0  0  0  0  0  0
   45.6126  -39.3922   15.2700 C   0  0  0  0  0  0
   46.7018  -40.2446   14.7800 C   0  0  0  0  0  0
   47.5814  -39.6805   13.7833 C   0  0  0  0  0  0
   47.4062  -38.3628   13.2994 C   0  0  0  0  0  0
   46.3570  -37.5596   13.7818 C   0  0  0  0  0  0
   45.4762  -38.0571   14.7445 C   0  0  0  0  0  0
   48.1229  -42.6816   14.8111 C   0  0  0  0  0  0
   47.7922  -43.9911   14.2943 C   0  0  0  0  0  0
   48.8202  -44.8918   13.8917 C   0  0  0  0  0  0
   50.1863  -44.4972   13.9996 C   0  0  0  0  0  0
   50.5212  -43.2099   14.5085 C   0  0  0  0  0  0
   49.5011  -42.3123   14.9096 C   0  0  0  0  0  0
   47.0104  -41.7340   15.2326 C   0  0  0  0  0  0
   46.1974  -42.2630   16.0182 O   0  0  0  0  0  0
   52.1217  -32.5568   19.7168 O   0  0  0  0  0  0
   52.8438  -33.7425   19.7916 C   0  0  0  0  0  0
   52.1291  -34.6618   18.9880 N   0  0  0  0  0  0
   51.0297  -33.9979   18.4875 C   0  0  0  0  0  0
   50.9849  -32.6316   18.9409 C   0  0  0  0  0  0
   49.9509  -31.5382   18.6433 C   0  0  0  0  0  0
   54.0170  -34.0052   20.4984 C   0  0  0  0  0  0
   54.4826  -33.1565   21.5693 C   0  0  0  0  0  0
   55.6867  -33.4685   22.2525 C   0  0  0  0  0  0
   56.4379  -34.6150   21.8842 C   0  0  0  0  0  0
   55.9915  -35.4610   20.8327 C   0  0  0  0  0  0
   54.7912  -35.1595   20.1420 C   0  0  0  0  0  0
   48.9806  -33.7678   16.9097 C   0  0  0  0  0  0
   50.0040  -34.7244   17.5513 C   0  0  0  0  0  0
   43.9140  -38.9234   19.6157 O   0  0  0  0  0  0
   42.4714  -39.4814   18.0116 O   0  0  0  0  0  0
   43.6463  -39.4379   18.5027 C   0  0  0  0  0  0
   43.7871  -40.1028   15.9078 H   0  0  0  0  0  0
   41.8494  -38.8138   18.2248 H   0  0  0  0  0  0
  1  2  1  0  0  0
  1 11  1  0  0  0
  1 42  1  0  0  0
  2  3  1  0  0  0
  2 41  1  0  0  0
  3  4  1  0  0  0
  4  5  2  0  0  0
  4  6  1  0  0  0
  5  7  1  0  0  0
  6  8  2  0  0  0
  7  9  2  0  0  0
  8  9  1  0  0  0
  9 10  1  0  0  0
 10 37  1  0  0  0
 11 12  2  0  0  0
 11 16  1  0  0  0
 12 13  1  0  0  0
 12 23  1  0  0  0
 13 14  2  0  0  0
 14 15  1  0  0  0
 15 16  2  0  0  0
 17 18  2  0  0  0
 17 22  1  0  0  0
 17 23  1  0  0  0
 18 19  1  0  0  0
 19 20  2  0  0  0
 20 21  1  0  0  0
 21 22  2  0  0  0
 23 24  2  0  0  0
 25 26  1  0  0  0
 25 29  1  0  0  0
 26 27  2  0  0  0
 26 31  1  0  0  0
 27 28  1  0  0  0
 28 29  2  0  0  0
 28 38  1  0  0  0
 29 30  1  0  0  0
 31 32  2  0  0  0
 31 36  1  0  0  0
 32 33  1  0  0  0
 33 34  2  0  0  0
 34 35  1  0  0  0
 35 36  2  0  0  0
 37 38  1  0  0  0
 39 41  2  0  0  0
 40 41  1  0  0  0
 40 43  1  0  0  0
M  END
>  <CHROM.0>
68.58579848,-172.58018274,-42.48895465,-36.36951891

>  <CHROM.1>
3.35066344,74.98686114,40.49378808,-142.97944723,52.85595501,111.07820139
30.81540999,-178.47331253,-125.28860059,17.24985672,-170.45059583,-171.88603330
-154.31174902,48.78297672,-37.70805624,17.28719714,2.24611264,0.14178169
-2.70310899

>  <FORMUL>
      570    C34 H30 N2 O5

>  <HET>
 570  D 200      41

>  <HETNAM>
     570 2-(2-BENZOYL-PHENYLAMINO)-3-{4-[2-(5-METHYL-2-PHENYL-OX
   2 570 AZOL-4-YL)-ETHOXY]-PHENYL}-PROPIONIC ACID

>  <HETSYN>
     570 GI262570

>  <Name>
570.pdb

>  <RI>
0

>  <Rbt.Current_Directory>
/home/malgorzata/Desktop/rDOCK_IFD/Wyniki/14a_ppar-gamma

>  <Rbt.Executable>
rbdock ($Id: //depot/dev/client3/rdock/2013.1/src/exe/rbdock.cxx#4 $)

>  <Rbt.Library>
libRbt.so (2013.1, Build901 2013/11/27)

>  <Rbt.Parameter_File>
/home/malgorzata/Desktop/rDock_2013.1_src/data/scripts/soft_docking.prm

>  <Rbt.Receptor>
cavity.prm

>  <SCORE>
-13.0739

>  <SCORE.INTER>
-25.5596

>  <SCORE.INTER.CONST>
1

>  <SCORE.INTER.POLAR>
-0.158848

>  <SCORE.INTER.REPUL>
0

>  <SCORE.INTER.ROT>
12

>  <SCORE.INTER.VDW>
-42.4196

>  <SCORE.INTER.norm>
-0.623406

>  <SCORE.INTRA>
8.05032

>  <SCORE.INTRA.DIHEDRAL>
26.7808

>  <SCORE.INTRA.DIHEDRAL.0>
12.9748

>  <SCORE.INTRA.POLAR>
0.058673

>  <SCORE.INTRA.POLAR.0>
-0.058673

>  <SCORE.INTRA.REPUL>
0

>  <SCORE.INTRA.REPUL.0>
0

>  <SCORE.INTRA.VDW>
2.49468

>  <SCORE.INTRA.VDW.0>
-4.98062

>  <SCORE.INTRA.norm>
0.196349

>  <SCORE.RESTR>
4.91468

>  <SCORE.RESTR.CAVITY>
0.982936

>  <SCORE.RESTR.norm>
0.11987

>  <SCORE.SYSTEM>
-0.479265

>  <SCORE.SYSTEM.CONST>
0

>  <SCORE.SYSTEM.DIHEDRAL>
4.51587

>  <SCORE.SYSTEM.POLAR>
-0.179657

>  <SCORE.SYSTEM.REPUL>
0.0467333

>  <SCORE.SYSTEM.VDW>
-2.36003

>  <SCORE.SYSTEM.norm>
-0.0116894

>  <SCORE.heavy>
41

>  <SCORE.norm>
-0.318876

$$$$
570.pdb
  rDOCK(R)          3D
libRbt.so/2013.1/901 2013/11/27
 43 47  0  0  0  0  0  0  0  0999 V2000
   54.3247  -35.2171   21.0844 N   0  0  0  0  0  0
   53.3735  -34.1607   20.5744 C   0  0  0  0  0  0
   51.8756  -34.5007   20.8511 C   0  0  0  0  0  0
   51.0211  -34.6691   19.5898 C   0  0  0  0  0  0
   51.6818  -34.9557   18.3502 C   0  0  0  0  0  0
   49.5931  -34.5449   19.6304 C   0  0  0  0  0  0
   50.9381  -35.1190   17.1660 C   0  0  0  0  0  0
   48.8371  -34.7068   18.4472 C   0  0  0  0  0  0
   49.5118  -35.0009   17.1771 C   0  0  0  0  0  0
   48.8798  -35.1907   15.9109 O   0  0  0  0  0  0
   55.1110  -35.3486   22.3083 C   0  0  0  0  0  0
   54.5008  -35.8342   23.5511 C   0  0  0  0  0  0
   55.3569  -35.9329   24.7099 C   0  0  0  0  0  0
   56.7246  -35.5756   24.6545 C   0  0  0  0  0  0
   57.2921  -35.1108   23.4542 C   0  0  0  0  0  0
   56.5091  -34.9983   22.3035 C   0  0  0  0  0  0
   51.7284  -35.4262   23.8783 C   0  0  0  0  0  0
   51.7925  -34.1330   24.5223 C   0  0  0  0  0  0
   50.6240  -33.3275   24.6479 C   0  0  0  0  0  0
   49.3814  -33.8017   24.1335 C   0  0  0  0  0  0
   49.3087  -35.0745   23.4987 C   0  0  0  0  0  0
   50.4690  -35.8776   23.3725 C   0  0  0  0  0  0
   52.9880  -36.2693   23.7518 C   0  0  0  0  0  0
   52.7671  -37.4903   23.8872 O   0  0  0  0  0  0
   45.2364  -37.2023   15.6240 O   0  0  0  0  0  0
   45.5208  -36.7332   16.9016 C   0  0  0  0  0  0
   46.2238  -35.5217   16.7024 N   0  0  0  0  0  0
   46.3324  -35.3316   15.3415 C   0  0  0  0  0  0
   45.7098  -36.4022   14.6063 C   0  0  0  0  0  0
   45.5953  -36.6073   13.0904 C   0  0  0  0  0  0
   45.2025  -37.3079   18.1318 C   0  0  0  0  0  0
   44.9627  -38.7230   18.2867 C   0  0  0  0  0  0
   44.6375  -39.2543   19.5618 C   0  0  0  0  0  0
   44.5456  -38.3962   20.6885 C   0  0  0  0  0  0
   44.7805  -37.0009   20.5520 C   0  0  0  0  0  0
   45.1048  -36.4579   19.2836 C   0  0  0  0  0  0
   48.5762  -34.0547   15.0659 C   0  0  0  0  0  0
   47.0669  -34.0766   14.7569 C   0  0  0  0  0  0
   52.8730  -31.8893   20.9536 O   0  0  0  0  0  0
   54.8596  -32.6171   21.6530 O   0  0  0  0  0  0
   53.7181  -32.8025   21.1183 C   0  0  0  0  0  0
   54.4380  -35.9731   20.4640 H   0  0  0  0  0  0
   55.6338  -32.9236   21.2231 H   0  0  0  0  0  0
  1  2  1  0  0  0
  1 11  1  0  0  0
  1 42  1  0  0  0
  2  3  1  0  0  0
  2 41  1  0  0  0
  3  4  1  0  0  0
  4  5  2  0  0  0
  4  6  1  0  0  0
  5  7  1  0  0  0
  6  8  2  0  0  0
  7  9  2  0  0  0
  8  9  1  0  0  0
  9 10  1  0  0  0
 10 37  1  0  0  0
 11 12  2  0  0  0
 11 16  1  0  0  0
 12 13  1  0  0  0
 12 23  1  0  0  0
 13 14  2  0  0  0
 14 15  1  0  0  0
 15 16  2  0  0  0
 17 18  2  0  0  0
 17 22  1  0  0  0
 17 23  1  0  0  0
 18 19  1  0  0  0
 19 20  2  0  0  0
 20 21  1  0  0  0
 21 22  2  0  0  0
 23 24  2  0  0  0
 25 26  1  0  0  0
 25 29  1  0  0  0
 26 27  2  0  0  0
 26 31  1  0  0  0
 27 28  1  0  0  0
 28 29  2  0  0  0
 28 38  1  0  0  0
 29 30  1  0  0  0
 31 32  2  0  0  0
 31 36  1  0  0  0
 32 33  1  0  0  0
 33 34  2  0  0  0
 34 35  1  0  0  0
 35 36  2  0  0  0
 37 38  1  0  0  0
 39 41  2  0  0  0
 40 41  1  0  0  0
 40 43  1  0  0  0
M  END
>  <CHROM.0>
-61.66408320,-93.35709291,-160.65783376,51.44622918

>  <CHROM.1>
-96.84500366,81.00553063,-117.75434292,-168.10695917,20.70086383,-94.03508273
-123.78202276,-75.46899495,-33.32436353,24.12735049,65.77790087,-3.85891512
46.87083173,50.15328910,-35.40648544,20.04227295,-0.58412565,-0.37661647
-1.31035199

>  <FORMUL>
      570    C34 H30 N2 O5

>  <HET>
 570  D 200      41

>  <HETNAM>
     570 2-(2-BENZOYL-PHENYLAMINO)-3-{4-[2-(5-METHYL-2-PHENYL-OX
   2 570 AZOL-4-YL)-ETHOXY]-PHENYL}-PROPIONIC ACID

>  <HETSYN>
     570 GI262570

>  <Name>
570.pdb

>  <RI>
0

>  <Rbt.Current_Directory>
/home/malgorzata/Desktop/rDOCK_IFD/Wyniki/14a_ppar-gamma

>  <Rbt.Executable>
rbdock ($Id: //depot/dev/client3/rdock/2013.1/src/exe/rbdock.cxx#4 $)

>  <Rbt.Library>
libRbt.so (2013.1, Build901 2013/11/27)

>  <Rbt.Parameter_File>
/home/malgorzata/Desktop/rDock_2013.1_src/data/scripts/soft_docking.prm

>  <Rbt.Receptor>
cavity.prm

>  <SCORE>
-21.2175

>  <SCORE.INTER>
-34.1961

>  <SCORE.INTER.CONST>
1

>  <SCORE.INTER.POLAR>
-0.987398

>  <SCORE.INTER.REPUL>
0

>  <SCORE.INTER.ROT>
12

>  <SCORE.INTER.VDW>
-48.239

>  <SCORE.INTER.norm>
-0.834052

>  <SCORE.INTRA>
11.0136

>  <SCORE.INTRA.DIHEDRAL>
58.5848

>  <SCORE.INTRA.DIHEDRAL.0>
12.9748

>  <SCORE.INTRA.POLAR>
0.058673

>  <SCORE.INTRA.POLAR.0>
-0.058673

>  <SCORE.INTRA.REPUL>
0

>  <SCORE.INTRA.REPUL.0>
0

>  <SCORE.INTRA.VDW>
-0.902883

>  <SCORE.INTRA.VDW.0>
-4.98062

>  <SCORE.INTRA.norm>
0.268624

>  <SCORE.RESTR>
1.26791

>  <SCORE.RESTR.CAVITY>
0.253582

>  <SCORE.RESTR.norm>
0.0309247

>  <SCORE.SYSTEM>
0.697185

>  <SCORE.SYSTEM.CONST>
0

>  <SCORE.SYSTEM.DIHEDRAL>
7.70734

>  <SCORE.SYSTEM.POLAR>
-0.235534

>  <SCORE.SYSTEM.REPUL>
0.0467333

>  <SCORE.SYSTEM.VDW>
-2.58933

>  <SCORE.SYSTEM.norm>
0.0170045

>  <SCORE.heavy>
41

>  <SCORE.norm>
-0.517499

$$$$
570.pdb
  rDOCK(R)          3D
libRbt.so/2013.1/901 2013/11/27
 43 47  0  0  0  0  0  0  0  0999 V2000
   53.0080  -34.3046   19.5762 N   0  0  0  0  0  0
   52.8026  -32.9431   18.9556 C   0  0  0  0  0  0
   51.3239  -32.4504   19.0363 C   0  0  0  0  0  0
   50.3299  -33.2961   18.2324 C   0  0  0  0  0  0
   50.4032  -33.2600   16.8011 C   0  0  0  0  0  0
   49.3423  -34.1091   18.8805 C   0  0  0  0  0  0
   49.5113  -34.0204   16.0213 C   0  0  0  0  0  0
   48.4419  -34.8762   18.1069 C   0  0  0  0  0  0
   48.5159  -34.8410   16.6412 C   0  0  0  0  0  0
   47.6777  -35.5613   15.7372 O   0  0  0  0  0  0
   54.1629  -34.9657   20.1785 C   0  0  0  0  0  0
   54.0167  -35.8031   21.3743 C   0  0  0  0  0  0
   55.2140  -36.4179   21.8977 C   0  0  0  0  0  0
   56.4758  -36.2218   21.2886 C   0  0  0  0  0  0
   56.5969  -35.4144   20.1431 C   0  0  0  0  0  0
   55.4701  -34.7982   19.5949 C   0  0  0  0  0  0
   51.7126  -35.1700   22.8743 C   0  0  0  0  0  0
   52.0684  -33.7794   23.0494 C   0  0  0  0  0  0
   51.1854  -32.8845   23.7198 C   0  0  0  0  0  0
   49.9403  -33.3656   24.2217 C   0  0  0  0  0  0
   49.5821  -34.7338   24.0547 C   0  0  0  0  0  0
   50.4582  -35.6259   23.3885 C   0  0  0  0  0  0
   52.6681  -36.1082   22.1531 C   0  0  0  0  0  0
   52.3377  -37.3074   22.2574 O   0  0  0  0  0  0
   46.8492  -40.1380   14.4556 O   0  0  0  0  0  0
   47.0080  -39.6102   15.7320 C   0  0  0  0  0  0
   47.0559  -38.2081   15.5488 N   0  0  0  0  0  0
   46.9348  -37.9686   14.1968 C   0  0  0  0  0  0
   46.8042  -39.1943   13.4519 C   0  0  0  0  0  0
   46.6520  -39.4059   11.9402 C   0  0  0  0  0  0
   47.1073  -40.2856   16.9481 C   0  0  0  0  0  0
   46.7174  -39.6851   18.2017 C   0  0  0  0  0  0
   46.8440  -40.4166   19.4111 C   0  0  0  0  0  0
   47.3556  -41.7403   19.3925 C   0  0  0  0  0  0
   47.7423  -42.3457   18.1658 C   0  0  0  0  0  0
   47.6218  -41.6250   16.9514 C   0  0  0  0  0  0
   47.9866  -35.5982   14.3229 C   0  0  0  0  0  0
   46.9536  -36.5076   13.6300 C   0  0  0  0  0  0
   54.9279  -31.9458   19.1600 O   0  0  0  0  0  0
   53.3029  -31.1363   20.4521 O   0  0  0  0  0  0
   53.7344  -31.9231   19.5477 C   0  0  0  0  0  0
   52.1960  -34.8613   19.5746 H   0  0  0  0  0  0
   53.8394  -30.4295   20.7533 H   0  0  0  0  0  0
  1  2  1  0  0  0
  1 11  1  0  0  0
  1 42  1  0  0  0
  2  3  1  0  0  0
  2 41  1  0  0  0
  3  4  1  0  0  0
  4  5  2  0  0  0
  4  6  1  0  0  0
  5  7  1  0  0  0
  6  8  2  0  0  0
  7  9  2  0  0  0
  8  9  1  0  0  0
  9 10  1  0  0  0
 10 37  1  0  0  0
 11 12  2  0  0  0
 11 16  1  0  0  0
 12 13  1  0  0  0
 12 23  1  0  0  0
 13 14  2  0  0  0
 14 15  1  0  0  0
 15 16  2  0  0  0
 17 18  2  0  0  0
 17 22  1  0  0  0
 17 23  1  0  0  0
 18 19  1  0  0  0
 19 20  2  0  0  0
 20 21  1  0  0  0
 21 22  2  0  0  0
 23 24  2  0  0  0
 25 26  1  0  0  0
 25 29  1  0  0  0
 26 27  2  0  0  0
 26 31  1  0  0  0
 27 28  1  0  0  0
 28 29  2  0  0  0
 28 38  1  0  0  0
 29 30  1  0  0  0
 31 32  2  0  0  0
 31 36  1  0  0  0
 32 33  1  0  0  0
 33 34  2  0  0  0
 34 35  1  0  0  0
 35 36  2  0  0  0
 37 38  1  0  0  0
 39 41  2  0  0  0
 40 41  1  0  0  0
 40 43  1  0  0  0
M  END
>  <CHROM.0>
-29.75959148,147.85427645,39.18986517,-123.24856834

>  <CHROM.1>
-153.93322562,140.65280818,-64.88187946,77.09002290,-68.83940628,9.41109281
176.96124531,-61.93639241,-7.29466606,-153.37590248,40.15140008,-58.56826461
-172.46594245,50.36780456,-36.06267936,18.73105943,-0.11296541,-0.88918360
-0.86360723

>  <FORMUL>
      570    C34 H30 N2 O5

>  <HET>
 570  D 200      41

>  <HETNAM>
     570 2-(2-BENZOYL-PHENYLAMINO)-3-{4-[2-(5-METHYL-2-PHENYL-OX
   2 570 AZOL-4-YL)-ETHOXY]-PHENYL}-PROPIONIC ACID

>  <HETSYN>
     570 GI262570

>  <Name>
570.pdb

>  <RI>
0

>  <Rbt.Current_Directory>
/home/malgorzata/Desktop/rDOCK_IFD/Wyniki/14a_ppar-gamma

>  <Rbt.Executable>
rbdock ($Id: //depot/dev/client3/rdock/2013.1/src/exe/rbdock.cxx#4 $)

>  <Rbt.Library>
libRbt.so (2013.1, Build901 2013/11/27)

>  <Rbt.Parameter_File>
/home/malgorzata/Desktop/rDock_2013.1_src/data/scripts/soft_docking.prm

>  <Rbt.Receptor>
cavity.prm

>  <SCORE>
-17.6131

>  <SCORE.INTER>
-26.1217

>  <SCORE.INTER.CONST>
1

>  <SCORE.INTER.POLAR>
-0.457611

>  <SCORE.INTER.REPUL>
0.871077

>  <SCORE.INTER.ROT>
12

>  <SCORE.INTER.VDW>
-46.3213

>  <SCORE.INTER.norm>
-0.637116

>  <SCORE.INTRA>
4.49667

>  <SCORE.INTRA.DIHEDRAL>
11.3313

>  <SCORE.INTRA.DIHEDRAL.0>
12.9748

>  <SCORE.INTRA.POLAR>
0.058673

>  <SCORE.INTRA.POLAR.0>
-0.058673

>  <SCORE.INTRA.REPUL>
0

>  <SCORE.INTRA.REPUL.0>
0

>  <SCORE.INTRA.VDW>
2.03092

>  <SCORE.INTRA.VDW.0>
-4.98062

>  <SCORE.INTRA.norm>
0.109675

>  <SCORE.RESTR>
0.41216

>  <SCORE.RESTR.CAVITY>
0.082432

>  <SCORE.RESTR.norm>
0.0100527

>  <SCORE.SYSTEM>
3.59982

>  <SCORE.SYSTEM.CONST>
0

>  <SCORE.SYSTEM.DIHEDRAL>
12.9103

>  <SCORE.SYSTEM.POLAR>
-0.293067

>  <SCORE.SYSTEM.REPUL>
0.0467333

>  <SCORE.SYSTEM.VDW>
-2.09256

>  <SCORE.SYSTEM.norm>
0.0878004

>  <SCORE.heavy>
41

>  <SCORE.norm>
-0.429588

$$$$
570.pdb
  rDOCK(R)          3D
libRbt.so/2013.1/901 2013/11/27
 43 47  0  0  0  0  0  0  0  0999 V2000
   47.9878  -33.4327   17.7058 N   0  0  0  0  0  0
   48.1685  -34.6438   18.5898 C   0  0  0  0  0  0
   49.1477  -35.6999   17.9884 C   0  0  0  0  0  0
   48.6276  -37.1412   18.0296 C   0  0  0  0  0  0
   49.5157  -38.1992   17.6459 C   0  0  0  0  0  0
   47.2866  -37.4422   18.4386 C   0  0  0  0  0  0
   49.0822  -39.5384   17.6684 C   0  0  0  0  0  0
   46.8413  -38.7833   18.4646 C   0  0  0  0  0  0
   47.7494  -39.8681   18.0727 C   0  0  0  0  0  0
   47.4390  -41.2616   18.0524 O   0  0  0  0  0  0
   48.0219  -33.2361   16.2589 C   0  0  0  0  0  0
   47.2870  -34.1295   15.3564 C   0  0  0  0  0  0
   47.3782  -33.8561   13.9414 C   0  0  0  0  0  0
   48.1439  -32.7764   13.4422 C   0  0  0  0  0  0
   48.8430  -31.9309   14.3225 C   0  0  0  0  0  0
   48.7868  -32.1495   15.7006 C   0  0  0  0  0  0
   46.2768  -36.7569   15.1656 C   0  0  0  0  0  0
   47.2205  -37.7874   15.5380 C   0  0  0  0  0  0
   47.1267  -39.0931   14.9757 C   0  0  0  0  0  0
   46.0927  -39.3850   14.0380 C   0  0  0  0  0  0
   45.1596  -38.3760   13.6646 C   0  0  0  0  0  0
   45.2505  -37.0767   14.2221 C   0  0  0  0  0  0
   46.3925  -35.3702   15.7796 C   0  0  0  0  0  0
   45.6045  -35.1966   16.7319 O   0  0  0  0  0  0
   48.2425  -45.9402   17.9726 O   0  0  0  0  0  0
   49.0298  -44.9362   17.4200 C   0  0  0  0  0  0
   48.2194  -43.7767   17.4423 N   0  0  0  0  0  0
   47.0061  -44.1369   17.9884 C   0  0  0  0  0  0
   46.9780  -45.5331   18.3406 C   0  0  0  0  0  0
   45.8459  -46.3596   18.9638 C   0  0  0  0  0  0
   50.3346  -45.0197   16.9349 C   0  0  0  0  0  0
   51.3601  -45.7887   17.5990 C   0  0  0  0  0  0
   52.6737  -45.8352   17.0638 C   0  0  0  0  0  0
   52.9837  -45.1250   15.8748 C   0  0  0  0  0  0
   51.9842  -44.3647   15.2087 C   0  0  0  0  0  0
   50.6690  -44.3093   15.7339 C   0  0  0  0  0  0
   46.1727  -41.7226   17.5222 C   0  0  0  0  0  0
   45.8542  -43.0883   18.1605 C   0  0  0  0  0  0
   47.8466  -34.5919   20.9237 O   0  0  0  0  0  0
   49.6470  -33.5474   20.1282 O   0  0  0  0  0  0
   48.5969  -34.2527   19.9765 C   0  0  0  0  0  0
   47.8103  -32.6050   18.2085 H   0  0  0  0  0  0
   49.9105  -33.2777   20.9861 H   0  0  0  0  0  0
  1  2  1  0  0  0
  1 11  1  0  0  0
  1 42  1  0  0  0
  2  3  1  0  0  0
  2 41  1  0  0  0
  3  4  1  0  0  0
  4  5  2  0  0  0
  4  6  1  0  0  0
  5  7  1  0  0  0
  6  8  2  0  0  0
  7  9  2  0  0  0
  8  9  1  0  0  0
  9 10  1  0  0  0
 10 37  1  0  0  0
 11 12  2  0  0  0
 11 16  1  0  0  0
 12 13  1  0  0  0
 12 23  1  0  0  0
 13 14  2  0  0  0
 14 15  1  0  0  0
 15 16  2  0  0  0
 17 18  2  0  0  0
 17 22  1  0  0  0
 17 23  1  0  0  0
 18 19  1  0  0  0
 19 20  2  0  0  0
 20 21  1  0  0  0
 21 22  2  0  0  0
 23 24  2  0  0  0
 25 26  1  0  0  0
 25 29  1  0  0  0
 26 27  2  0  0  0
 26 31  1  0  0  0
 27 28  1  0  0  0
 28 29  2  0  0  0
 28 38  1  0  0  0
 29 30  1  0  0  0
 31 32  2  0  0  0
 31 36  1  0  0  0
 32 33  1  0  0  0
 33 34  2  0  0  0
 34 35  1  0  0  0
 35 36  2  0  0  0
 37 38  1  0  0  0
 39 41  2  0  0  0
 40 41  1  0  0  0
 40 43  1  0  0  0
M  END
>  <CHROM.0>
41.02533159,-172.27900409,-131.37863069,-6.11702191

>  <CHROM.1>
31.08829231,47.52109156,-132.61039539,120.48968037,-172.79716382,-136.84127159
-155.62911130,-138.18148623,84.49384599,-40.57828962,6.59763594,-54.02898803
178.30525686,48.10297312,-39.04153155,16.97344341,-1.76794021,0.85842368
-3.05896615

>  <FORMUL>
      570    C34 H30 N2 O5

>  <HET>
 570  D 200      41

>  <HETNAM>
     570 2-(2-BENZOYL-PHENYLAMINO)-3-{4-[2-(5-METHYL-2-PHENYL-OX
   2 570 AZOL-4-YL)-ETHOXY]-PHENYL}-PROPIONIC ACID

>  <HETSYN>
     570 GI262570

>  <Name>
570.pdb

>  <RI>
0

>  <Rbt.Current_Directory>
/home/malgorzata/Desktop/rDOCK_IFD/Wyniki/14a_ppar-gamma

>  <Rbt.Executable>
rbdock ($Id: //depot/dev/client3/rdock/2013.1/src/exe/rbdock.cxx#4 $)

>  <Rbt.Library>
libRbt.so (2013.1, Build901 2013/11/27)

>  <Rbt.Parameter_File>
/home/malgorzata/Desktop/rDock_2013.1_src/data/scripts/soft_docking.prm

>  <Rbt.Receptor>
cavity.prm

>  <SCORE>
-4.68667

>  <SCORE.INTER>
-16.3112

>  <SCORE.INTER.CONST>
1

>  <SCORE.INTER.POLAR>
0

>  <SCORE.INTER.REPUL>
0.019651

>  <SCORE.INTER.ROT>
12

>  <SCORE.INTER.VDW>
-33.8094

>  <SCORE.INTER.norm>
-0.397833

>  <SCORE.INTRA>
5.58507

>  <SCORE.INTRA.DIHEDRAL>
34.2471

>  <SCORE.INTRA.DIHEDRAL.0>
12.9748

>  <SCORE.INTRA.POLAR>
0.058673

>  <SCORE.INTRA.POLAR.0>
-0.058673

>  <SCORE.INTRA.REPUL>
0

>  <SCORE.INTRA.REPUL.0>
0

>  <SCORE.INTRA.VDW>
-1.46384

>  <SCORE.INTRA.VDW.0>
-4.98062

>  <SCORE.INTRA.norm>
0.136221

>  <SCORE.RESTR>
6.09651

>  <SCORE.RESTR.CAVITY>
1.2193

>  <SCORE.RESTR.norm>
0.148695

>  <SCORE.SYSTEM>
-0.0570819

>  <SCORE.SYSTEM.CONST>
0

>  <SCORE.SYSTEM.DIHEDRAL>
4.64211

>  <SCORE.SYSTEM.POLAR>
-0.0227247

>  <SCORE.SYSTEM.REPUL>
0.0467333

>  <SCORE.SYSTEM.VDW>
-2.53454

>  <SCORE.SYSTEM.norm>
-0.00139224

>  <SCORE.heavy>
41

>  <SCORE.norm>
-0.114309

$$$$
570.pdb
  rDOCK(R)          3D
libRbt.so/2013.1/901 2013/11/27
 43 47  0  0  0  0  0  0  0  0999 V2000
   46.2420  -38.8811   13.4713 N   0  0  0  0  0  0
   46.0381  -37.7639   14.4668 C   0  0  0  0  0  0
   47.0753  -36.6081   14.3109 C   0  0  0  0  0  0
   47.8257  -36.2526   15.5993 C   0  0  0  0  0  0
   47.1020  -36.2645   16.8368 C   0  0  0  0  0  0
   49.2186  -35.9123   15.5853 C   0  0  0  0  0  0
   47.7494  -35.9452   18.0454 C   0  0  0  0  0  0
   49.8781  -35.5900   16.7931 C   0  0  0  0  0  0
   49.1389  -35.6022   18.0614 C   0  0  0  0  0  0
   49.6726  -35.3021   19.3512 O   0  0  0  0  0  0
   47.3026  -39.8664   13.2764 C   0  0  0  0  0  0
   47.5557  -40.9127   14.2734 C   0  0  0  0  0  0
   48.6237  -41.8436   13.9938 C   0  0  0  0  0  0
   49.3968  -41.7528   12.8126 C   0  0  0  0  0  0
   49.1405  -40.7420   11.8685 C   0  0  0  0  0  0
   48.1176  -39.8173   12.0887 C   0  0  0  0  0  0
   46.6676  -42.3549   16.5297 C   0  0  0  0  0  0
   47.8239  -43.2031   16.7167 C   0  0  0  0  0  0
   47.7508  -44.3531   17.5546 C   0  0  0  0  0  0
   46.5266  -44.6691   18.2141 C   0  0  0  0  0  0
   45.3825  -43.8401   18.0349 C   0  0  0  0  0  0
   45.4523  -42.6960   17.2023 C   0  0  0  0  0  0
   46.7674  -41.1302   15.6334 C   0  0  0  0  0  0
   46.0604  -40.1818   16.0315 O   0  0  0  0  0  0
   51.9388  -36.7289   22.6448 O   0  0  0  0  0  0
   51.2358  -36.3340   23.7775 C   0  0  0  0  0  0
   50.4612  -35.2247   23.3636 N   0  0  0  0  0  0
   50.7389  -35.0073   22.0310 C   0  0  0  0  0  0
   51.6968  -35.9579   21.5281 C   0  0  0  0  0  0
   52.2955  -36.0891   20.1219 C   0  0  0  0  0  0
   51.2669  -36.8844   25.0585 C   0  0  0  0  0  0
   51.5313  -36.0919   26.2358 C   0  0  0  0  0  0
   51.5558  -36.7048   27.5155 C   0  0  0  0  0  0
   51.3220  -38.0989   27.6420 C   0  0  0  0  0  0
   51.0589  -38.8922   26.4921 C   0  0  0  0  0  0
   51.0329  -38.2921   25.2084 C   0  0  0  0  0  0
   49.0243  -34.3275   20.2038 C   0  0  0  0  0  0
   50.0524  -33.8397   21.2425 C   0  0  0  0  0  0
   43.9968  -37.4051   13.3452 O   0  0  0  0  0  0
   44.1807  -36.5682   15.4023 O   0  0  0  0  0  0
   44.6348  -37.2280   14.4114 C   0  0  0  0  0  0
   45.5089  -38.9620   12.8192 H   0  0  0  0  0  0
   43.4201  -36.8714   15.8580 H   0  0  0  0  0  0
  1  2  1  0  0  0
  1 11  1  0  0  0
  1 42  1  0  0  0
  2  3  1  0  0  0
  2 41  1  0  0  0
  3  4  1  0  0  0
  4  5  2  0  0  0
  4  6  1  0  0  0
  5  7  1  0  0  0
  6  8  2  0  0  0
  7  9  2  0  0  0
  8  9  1  0  0  0
  9 10  1  0  0  0
 10 37  1  0  0  0
 11 12  2  0  0  0
 11 16  1  0  0  0
 12 13  1  0  0  0
 12 23  1  0  0  0
 13 14  2  0  0  0
 14 15  1  0  0  0
 15 16  2  0  0  0
 17 18  2  0  0  0
 17 22  1  0  0  0
 17 23  1  0  0  0
 18 19  1  0  0  0
 19 20  2  0  0  0
 20 21  1  0  0  0
 21 22  2  0  0  0
 23 24  2  0  0  0
 25 26  1  0  0  0
 25 29  1  0  0  0
 26 27  2  0  0  0
 26 31  1  0  0  0
 27 28  1  0  0  0
 28 29  2  0  0  0
 28 38  1  0  0  0
 29 30  1  0  0  0
 31 32  2  0  0  0
 31 36  1  0  0  0
 32 33  1  0  0  0
 33 34  2  0  0  0
 34 35  1  0  0  0
 35 36  2  0  0  0
 37 38  1  0  0  0
 39 41  2  0  0  0
 40 41  1  0  0  0
 40 43  1  0  0  0
M  END
>  <CHROM.0>
-68.87853354,-22.78731545,168.42094005,132.50632125

>  <CHROM.1>
66.70523892,66.36622173,-126.43946407,-23.08655951,-38.71138204,-52.01280319
-159.44782171,160.73506533,37.10365067,126.56468345,-109.55726580,-53.06462937
-120.20670350,48.50947481,-38.26571478,18.33416123,-3.10757674,1.17487393
2.75784067

>  <FORMUL>
      570    C34 H30 N2 O5

>  <HET>
 570  D 200      41

>  <HETNAM>
     570 2-(2-BENZOYL-PHENYLAMINO)-3-{4-[2-(5-METHYL-2-PHENYL-OX
   2 570 AZOL-4-YL)-ETHOXY]-PHENYL}-PROPIONIC ACID

>  <HETSYN>
     570 GI262570

>  <Name>
570.pdb

>  <RI>
0

>  <Rbt.Current_Directory>
/home/malgorzata/Desktop/rDOCK_IFD/Wyniki/14a_ppar-gamma

>  <Rbt.Executable>
rbdock ($Id: //depot/dev/client3/rdock/2013.1/src/exe/rbdock.cxx#4 $)

>  <Rbt.Library>
libRbt.so (2013.1, Build901 2013/11/27)

>  <Rbt.Parameter_File>
/home/malgorzata/Desktop/rDock_2013.1_src/data/scripts/soft_docking.prm

>  <Rbt.Receptor>
cavity.prm

>  <SCORE>
-8.58759

>  <SCORE.INTER>
-25.2491

>  <SCORE.INTER.CONST>
1

>  <SCORE.INTER.POLAR>
-0.11096

>  <SCORE.INTER.REPUL>
0.0999702

>  <SCORE.INTER.ROT>
12

>  <SCORE.INTER.VDW>
-42.7717

>  <SCORE.INTER.norm>
-0.615833

>  <SCORE.INTRA>
12.0968

>  <SCORE.INTRA.DIHEDRAL>
46.137

>  <SCORE.INTRA.DIHEDRAL.0>
12.9748

>  <SCORE.INTRA.POLAR>
0.058673

>  <SCORE.INTRA.POLAR.0>
-0.058673

>  <SCORE.INTRA.REPUL>
0.327648

>  <SCORE.INTRA.REPUL.0>
0

>  <SCORE.INTRA.VDW>
1.03169

>  <SCORE.INTRA.VDW.0>
-4.98062

>  <SCORE.INTRA.norm>
0.295044

>  <SCORE.RESTR>
4.29546

>  <SCORE.RESTR.CAVITY>
0.859092

>  <SCORE.RESTR.norm>
0.104767

>  <SCORE.SYSTEM>
0.269275

>  <SCORE.SYSTEM.CONST>
0

>  <SCORE.SYSTEM.DIHEDRAL>
8.10148

>  <SCORE.SYSTEM.POLAR>
-0.545852

>  <SCORE.SYSTEM.REPUL>
0.0467333

>  <SCORE.SYSTEM.VDW>
-2.15924

>  <SCORE.SYSTEM.norm>
0.00656769

>  <SCORE.heavy>
41

>  <SCORE.norm>
-0.209453

$$$$
570.pdb
  rDOCK(R)          3D
libRbt.so/2013.1/901 2013/11/27
 43 47  0  0  0  0  0  0  0  0999 V2000
   50.1472  -34.6633   18.7516 N   0  0  0  0  0  0
   49.5118  -34.8473   17.3939 C   0  0  0  0  0  0
   47.9621  -35.0194   17.4616 C   0  0  0  0  0  0
   47.4974  -36.3031   18.1586 C   0  0  0  0  0  0
   46.3215  -36.2489   18.9768 C   0  0  0  0  0  0
   48.2111  -37.5377   18.0078 C   0  0  0  0  0  0
   45.8568  -37.4028   19.6360 C   0  0  0  0  0  0
   47.7531  -38.7019   18.6655 C   0  0  0  0  0  0
   46.5489  -38.6486   19.5032 C   0  0  0  0  0  0
   45.9724  -39.7397   20.2212 O   0  0  0  0  0  0
   49.9103  -33.7286   19.8488 C   0  0  0  0  0  0
   50.4339  -33.9924   21.1938 C   0  0  0  0  0  0
   50.1512  -33.0106   22.2143 C   0  0  0  0  0  0
   49.4001  -31.8449   21.9347 C   0  0  0  0  0  0
   48.9050  -31.6093   20.6393 C   0  0  0  0  0  0
   49.1516  -32.5257   19.6149 C   0  0  0  0  0  0
   52.7949  -35.4611   21.6715 C   0  0  0  0  0  0
   53.3320  -36.7629   22.0004 C   0  0  0  0  0  0
   54.7400  -36.9793   22.0295 C   0  0  0  0  0  0
   55.6258  -35.9023   21.7314 C   0  0  0  0  0  0
   55.1057  -34.6166   21.4075 C   0  0  0  0  0  0
   53.7062  -34.3986   21.3778 C   0  0  0  0  0  0
   51.2887  -35.2517   21.6430 C   0  0  0  0  0  0
   50.6531  -36.2716   21.9804 O   0  0  0  0  0  0
   46.8470  -40.3873   15.1310 O   0  0  0  0  0  0
   46.2849  -39.2260   15.6493 C   0  0  0  0  0  0
   45.9652  -39.5375   16.9918 N   0  0  0  0  0  0
   46.3358  -40.8477   17.2064 C   0  0  0  0  0  0
   46.9068  -41.4368   16.0227 C   0  0  0  0  0  0
   47.4452  -42.8560   15.8014 C   0  0  0  0  0  0
   46.0644  -38.0051   15.0123 C   0  0  0  0  0  0
   45.9211  -36.7666   15.7401 C   0  0  0  0  0  0
   45.6933  -35.5527   15.0412 C   0  0  0  0  0  0
   45.6042  -35.5525   13.6248 C   0  0  0  0  0  0
   45.7448  -36.7637   12.8942 C   0  0  0  0  0  0
   45.9714  -37.9828   13.5807 C   0  0  0  0  0  0
   45.1814  -40.7360   19.5293 C   0  0  0  0  0  0
   46.1182  -41.5313   18.5998 C   0  0  0  0  0  0
   49.0093  -32.8528   16.2438 O   0  0  0  0  0  0
   51.0151  -33.7524   15.8787 O   0  0  0  0  0  0
   49.8809  -33.7299   16.4587 C   0  0  0  0  0  0
   50.8701  -35.3060   18.9351 H   0  0  0  0  0  0
   51.6739  -34.3559   16.1610 H   0  0  0  0  0  0
  1  2  1  0  0  0
  1 11  1  0  0  0
  1 42  1  0  0  0
  2  3  1  0  0  0
  2 41  1  0  0  0
  3  4  1  0  0  0
  4  5  2  0  0  0
  4  6  1  0  0  0
  5  7  1  0  0  0
  6  8  2  0  0  0
  7  9  2  0  0  0
  8  9  1  0  0  0
  9 10  1  0  0  0
 10 37  1  0  0  0
 11 12  2  0  0  0
 11 16  1  0  0  0
 12 13  1  0  0  0
 12 23  1  0  0  0
 13 14  2  0  0  0
 14 15  1  0  0  0
 15 16  2  0  0  0
 17 18  2  0  0  0
 17 22  1  0  0  0
 17 23  1  0  0  0
 18 19  1  0  0  0
 19 20  2  0  0  0
 20 21  1  0  0  0
 21 22  2  0  0  0
 23 24  2  0  0  0
 25 26  1  0  0  0
 25 29  1  0  0  0
 26 27  2  0  0  0
 26 31  1  0  0  0
 27 28  1  0  0  0
 28 29  2  0  0  0
 28 38  1  0  0  0
 29 30  1  0  0  0
 31 32  2  0  0  0
 31 36  1  0  0  0
 32 33  1  0  0  0
 33 34  2  0  0  0
 34 35  1  0  0  0
 35 36  2  0  0  0
 37 38  1  0  0  0
 39 41  2  0  0  0
 40 41  1  0  0  0
 40 43  1  0  0  0
M  END
>  <CHROM.0>
162.38139105,163.09265091,13.41562284,-151.88878156

>  <CHROM.1>
-54.24114596,163.69295910,-65.96184367,-103.56989176,142.85627141,102.18339978
67.62951061,90.95384142,-173.71697431,-157.64852185,13.79898800,-85.12192563
-12.35111207,48.69955831,-36.58628771,18.39774288,0.29501175,-0.81551924
-0.37062532

>  <FORMUL>
      570    C34 H30 N2 O5

>  <HET>
 570  D 200      41

>  <HETNAM>
     570 2-(2-BENZOYL-PHENYLAMINO)-3-{4-[2-(5-METHYL-2-PHENYL-OX
   2 570 AZOL-4-YL)-ETHOXY]-PHENYL}-PROPIONIC ACID

>  <HETSYN>
     570 GI262570

>  <Name>
570.pdb

>  <RI>
0

>  <Rbt.Current_Directory>
/home/malgorzata/Desktop/rDOCK_IFD/Wyniki/14a_ppar-gamma

>  <Rbt.Executable>
rbdock ($Id: //depot/dev/client3/rdock/2013.1/src/exe/rbdock.cxx#4 $)

>  <Rbt.Library>
libRbt.so (2013.1, Build901 2013/11/27)

>  <Rbt.Parameter_File>
/home/malgorzata/Desktop/rDock_2013.1_src/data/scripts/soft_docking.prm

>  <Rbt.Receptor>
cavity.prm

>  <SCORE>
-17.5639

>  <SCORE.INTER>
-23.3919

>  <SCORE.INTER.CONST>
1

>  <SCORE.INTER.POLAR>
-0.127595

>  <SCORE.INTER.REPUL>
0.00274194

>  <SCORE.INTER.ROT>
12

>  <SCORE.INTER.VDW>
-40.3718

>  <SCORE.INTER.norm>
-0.570535

>  <SCORE.INTRA>
4.6546

>  <SCORE.INTRA.DIHEDRAL>
17.5212

>  <SCORE.INTRA.DIHEDRAL.0>
12.9748

>  <SCORE.INTRA.POLAR>
0.058673

>  <SCORE.INTRA.POLAR.0>
-0.058673

>  <SCORE.INTRA.REPUL>
0

>  <SCORE.INTRA.REPUL.0>
0

>  <SCORE.INTRA.VDW>
0.950873

>  <SCORE.INTRA.VDW.0>
-4.98062

>  <SCORE.INTRA.norm>
0.113527

>  <SCORE.RESTR>
1.38123

>  <SCORE.RESTR.CAVITY>
0.276245

>  <SCORE.RESTR.norm>
0.0336884

>  <SCORE.SYSTEM>
-0.20776

>  <SCORE.SYSTEM.CONST>
0

>  <SCORE.SYSTEM.DIHEDRAL>
4.0762

>  <SCORE.SYSTEM.POLAR>
-0.093252

>  <SCORE.SYSTEM.REPUL>
0.0467333

>  <SCORE.SYSTEM.VDW>
-2.16247

>  <SCORE.SYSTEM.norm>
-0.00506731

>  <SCORE.heavy>
41

>  <SCORE.norm>
-0.428387

$$$$
570.pdb
  rDOCK(R)          3D
libRbt.so/2013.1/901 2013/11/27
 43 47  0  0  0  0  0  0  0  0999 V2000
   47.1687  -36.5648   12.9548 N   0  0  0  0  0  0
   47.7373  -35.3469   13.6435 C   0  0  0  0  0  0
   49.0366  -35.6519   14.4526 C   0  0  0  0  0  0
   48.9804  -35.2271   15.9243 C   0  0  0  0  0  0
   48.6389  -36.2130   16.9074 C   0  0  0  0  0  0
   49.2587  -33.8789   16.3259 C   0  0  0  0  0  0
   48.5753  -35.8690   18.2711 C   0  0  0  0  0  0
   49.1975  -33.5231   17.6924 C   0  0  0  0  0  0
   48.8486  -34.5314   18.7006 C   0  0  0  0  0  0
   48.7513  -34.3170   20.1088 O   0  0  0  0  0  0
   45.8290  -37.1430   12.8894 C   0  0  0  0  0  0
   45.0945  -37.4906   14.1112 C   0  0  0  0  0  0
   43.7755  -38.0553   13.9480 C   0  0  0  0  0  0
   43.2129  -38.2685   12.6676 C   0  0  0  0  0  0
   43.9325  -37.9302   11.5072 C   0  0  0  0  0  0
   45.2114  -37.3789   11.6087 C   0  0  0  0  0  0
   46.5808  -38.1315   16.4220 C   0  0  0  0  0  0
   46.4032  -38.2432   17.8528 C   0  0  0  0  0  0
   47.3072  -39.0166   18.6368 C   0  0  0  0  0  0
   48.3957  -39.6860   18.0038 C   0  0  0  0  0  0
   48.5789  -39.5807   16.5954 C   0  0  0  0  0  0
   47.6817  -38.8122   15.8134 C   0  0  0  0  0  0
   45.6029  -37.3033   15.6028 C   0  0  0  0  0  0
   45.0970  -36.3679   16.2562 O   0  0  0  0  0  0
   53.6527  -33.1735   20.2466 O   0  0  0  0  0  0
   53.1204  -33.8527   21.3367 C   0  0  0  0  0  0
   51.7298  -33.5967   21.2885 N   0  0  0  0  0  0
   51.5017  -32.7848   20.1981 C   0  0  0  0  0  0
   52.7238  -32.4825   19.4986 C   0  0  0  0  0  0
   52.9452  -31.6216   18.2484 C   0  0  0  0  0  0
   53.7831  -34.6230   22.2919 C   0  0  0  0  0  0
   54.8009  -34.0763   23.1575 C   0  0  0  0  0  0
   55.4471  -34.9070   24.1095 C   0  0  0  0  0  0
   55.0959  -36.2783   24.2127 C   0  0  0  0  0  0
   54.0946  -36.8307   23.3684 C   0  0  0  0  0  0
   53.4428  -36.0117   22.4129 C   0  0  0  0  0  0
   48.9564  -32.9957   20.6648 C   0  0  0  0  0  0
   50.0558  -32.2951   19.8436 C   0  0  0  0  0  0
   46.9833  -33.8378   11.9979 O   0  0  0  0  0  0
   49.1481  -33.7642   12.5212 O   0  0  0  0  0  0
   47.9695  -34.2242   12.6712 C   0  0  0  0  0  0
   47.8394  -37.0740   12.4447 H   0  0  0  0  0  0
   49.7729  -33.8409   13.2153 H   0  0  0  0  0  0
  1  2  1  0  0  0
  1 11  1  0  0  0
  1 42  1  0  0  0
  2  3  1  0  0  0
  2 41  1  0  0  0
  3  4  1  0  0  0
  4  5  2  0  0  0
  4  6  1  0  0  0
  5  7  1  0  0  0
  6  8  2  0  0  0
  7  9  2  0  0  0
  8  9  1  0  0  0
  9 10  1  0  0  0
 10 37  1  0  0  0
 11 12  2  0  0  0
 11 16  1  0  0  0
 12 13  1  0  0  0
 12 23  1  0  0  0
 13 14  2  0  0  0
 14 15  1  0  0  0
 15 16  2  0  0  0
 17 18  2  0  0  0
 17 22  1  0  0  0
 17 23  1  0  0  0
 18 19  1  0  0  0
 19 20  2  0  0  0
 20 21  1  0  0  0
 21 22  2  0  0  0
 23 24  2  0  0  0
 25 26  1  0  0  0
 25 29  1  0  0  0
 26 27  2  0  0  0
 26 31  1  0  0  0
 27 28  1  0  0  0
 28 29  2  0  0  0
 28 38  1  0  0  0
 29 30  1  0  0  0
 31 32  2  0  0  0
 31 36  1  0  0  0
 32 33  1  0  0  0
 33 34  2  0  0  0
 34 35  1  0  0  0
 35 36  2  0  0  0
 37 38  1  0  0  0
 39 41  2  0  0  0
 40 41  1  0  0  0
 40 43  1  0  0  0
M  END
>  <CHROM.0>
23.62065921,55.77873288,21.96417643,-11.41093134

>  <CHROM.1>
131.11851724,-55.51818051,-125.41851364,56.38832216,96.79914922,-177.73685908
-35.94562551,-77.79497642,-147.88103815,60.93192935,-9.81094301,-77.37330930
-25.55638865,49.13539482,-35.59793711,17.39886111,-2.79858421,0.81206495
2.37562462

>  <FORMUL>
      570    C34 H30 N2 O5

>  <HET>
 570  D 200      41

>  <HETNAM>
     570 2-(2-BENZOYL-PHENYLAMINO)-3-{4-[2-(5-METHYL-2-PHENYL-OX
   2 570 AZOL-4-YL)-ETHOXY]-PHENYL}-PROPIONIC ACID

>  <HETSYN>
     570 GI262570

>  <Name>
570.pdb

>  <RI>
0

>  <Rbt.Current_Directory>
/home/malgorzata/Desktop/rDOCK_IFD/Wyniki/14a_ppar-gamma

>  <Rbt.Executable>
rbdock ($Id: //depot/dev/client3/rdock/2013.1/src/exe/rbdock.cxx#4 $)

>  <Rbt.Library>
libRbt.so (2013.1, Build901 2013/11/27)

>  <Rbt.Parameter_File>
/home/malgorzata/Desktop/rDock_2013.1_src/data/scripts/soft_docking.prm

>  <Rbt.Receptor>
cavity.prm

>  <SCORE>
-7.1471

>  <SCORE.INTER>
-25.2105

>  <SCORE.INTER.CONST>
1

>  <SCORE.INTER.POLAR>
-1.75796

>  <SCORE.INTER.REPUL>
0.0618362

>  <SCORE.INTER.ROT>
12

>  <SCORE.INTER.VDW>
-36.9426

>  <SCORE.INTER.norm>
-0.614891

>  <SCORE.INTRA>
15.6028

>  <SCORE.INTRA.DIHEDRAL>
41.3971

>  <SCORE.INTRA.DIHEDRAL.0>
12.9748

>  <SCORE.INTRA.POLAR>
0.058673

>  <SCORE.INTRA.POLAR.0>
-0.058673

>  <SCORE.INTRA.REPUL>
0

>  <SCORE.INTRA.REPUL.0>
0

>  <SCORE.INTRA.VDW>
7.12391

>  <SCORE.INTRA.VDW.0>
-4.98062

>  <SCORE.INTRA.norm>
0.380557

>  <SCORE.RESTR>
1.21246

>  <SCORE.RESTR.CAVITY>
0.242492

>  <SCORE.RESTR.norm>
0.0295722

>  <SCORE.SYSTEM>
1.24815

>  <SCORE.SYSTEM.CONST>
0

>  <SCORE.SYSTEM.DIHEDRAL>
5.69348

>  <SCORE.SYSTEM.POLAR>
-0.0423459

>  <SCORE.SYSTEM.REPUL>
0.0467333

>  <SCORE.SYSTEM.VDW>
-1.68828

>  <SCORE.SYSTEM.norm>
0.0304427

>  <SCORE.heavy>
41

>  <SCORE.norm>
-0.17432

$$$$
570.pdb
  rDOCK(R)          3D
libRbt.so/2013.1/901 2013/11/27
 43 47  0  0  0  0  0  0  0  0999 V2000
   50.2546  -33.3517   17.9576 N   0  0  0  0  0  0
   49.8467  -33.9712   16.6421 C   0  0  0  0  0  0
   48.6398  -33.2439   15.9711 C   0  0  0  0  0  0
   48.2000  -33.8492   14.6333 C   0  0  0  0  0  0
   48.6056  -33.1977   13.4224 C   0  0  0  0  0  0
   47.4002  -35.0380   14.5759 C   0  0  0  0  0  0
   48.2258  -33.7175   12.1704 C   0  0  0  0  0  0
   47.0133  -35.5680   13.3240 C   0  0  0  0  0  0
   47.4283  -34.9027   12.0830 C   0  0  0  0  0  0
   47.1151  -35.3239   10.7553 O   0  0  0  0  0  0
   51.3812  -33.5723   18.8607 C   0  0  0  0  0  0
   51.3667  -34.6696   19.8346 C   0  0  0  0  0  0
   52.5257  -34.8110   20.6842 C   0  0  0  0  0  0
   53.6287  -33.9304   20.5871 C   0  0  0  0  0  0
   53.6245  -32.8831   19.6481 C   0  0  0  0  0  0
   52.5293  -32.7030   18.8006 C   0  0  0  0  0  0
   48.7123  -35.6228   19.7590 C   0  0  0  0  0  0
   48.0266  -36.7249   19.1216 C   0  0  0  0  0  0
   46.6309  -36.6476   18.8458 C   0  0  0  0  0  0
   45.9052  -35.4729   19.2022 C   0  0  0  0  0  0
   46.5725  -34.3822   19.8292 C   0  0  0  0  0  0
   47.9603  -34.4562   20.1045 C   0  0  0  0  0  0
   50.2021  -35.7265   20.0473 C   0  0  0  0  0  0
   50.5151  -36.8072   20.5878 O   0  0  0  0  0  0
   44.8742  -39.6817   13.1362 O   0  0  0  0  0  0
   46.1784  -40.0413   13.4570 C   0  0  0  0  0  0
   46.9924  -39.3361   12.5396 N   0  0  0  0  0  0
   46.1525  -38.6090   11.7236 C   0  0  0  0  0  0
   44.7701  -38.8097   12.0738 C   0  0  0  0  0  0
   43.5065  -38.2136   11.4403 C   0  0  0  0  0  0
   46.6229  -40.9086   14.4546 C   0  0  0  0  0  0
   45.7155  -41.6713   15.2786 C   0  0  0  0  0  0
   46.2224  -42.5360   16.2832 C   0  0  0  0  0  0
   47.6228  -42.6528   16.4821 C   0  0  0  0  0  0
   48.5288  -41.9093   15.6777 C   0  0  0  0  0  0
   48.0349  -41.0414   14.6719 C   0  0  0  0  0  0
   46.0778  -36.3076   10.5240 C   0  0  0  0  0  0
   46.7226  -37.7059   10.5765 C   0  0  0  0  0  0
   50.9704  -33.3245   14.6742 O   0  0  0  0  0  0
   51.9339  -34.9044   15.9157 O   0  0  0  0  0  0
   51.0083  -34.0579   15.6920 C   0  0  0  0  0  0
   49.6329  -32.6557   18.2711 H   0  0  0  0  0  0
   52.2172  -35.4803   15.2330 H   0  0  0  0  0  0
  1  2  1  0  0  0
  1 11  1  0  0  0
  1 42  1  0  0  0
  2  3  1  0  0  0
  2 41  1  0  0  0
  3  4  1  0  0  0
  4  5  2  0  0  0
  4  6  1  0  0  0
  5  7  1  0  0  0
  6  8  2  0  0  0
  7  9  2  0  0  0
  8  9  1  0  0  0
  9 10  1  0  0  0
 10 37  1  0  0  0
 11 12  2  0  0  0
 11 16  1  0  0  0
 12 13  1  0  0  0
 12 23  1  0  0  0
 13 14  2  0  0  0
 14 15  1  0  0  0
 15 16  2  0  0  0
 17 18  2  0  0  0
 17 22  1  0  0  0
 17 23  1  0  0  0
 18 19  1  0  0  0
 19 20  2  0  0  0
 20 21  1  0  0  0
 21 22  2  0  0  0
 23 24  2  0  0  0
 25 26  1  0  0  0
 25 29  1  0  0  0
 26 27  2  0  0  0
 26 31  1  0  0  0
 27 28  1  0  0  0
 28 29  2  0  0  0
 28 38  1  0  0  0
 29 30  1  0  0  0
 31 32  2  0  0  0
 31 36  1  0  0  0
 32 33  1  0  0  0
 33 34  2  0  0  0
 34 35  1  0  0  0
 35 36  2  0  0  0
 37 38  1  0  0  0
 39 41  2  0  0  0
 40 41  1  0  0  0
 40 43  1  0  0  0
M  END
>  <CHROM.0>
-61.91231140,177.03947683,162.81862658,-113.34640551

>  <CHROM.1>
-172.19536962,-82.21996374,-179.96614219,-111.84628020,-101.47122423,-165.69640664
-89.07350819,-25.64416744,135.91240890,4.87310286,-134.33133670,118.15754948
129.95603944,48.40072483,-36.38019344,15.84832453,-0.16121823,-1.00267163
-0.85074629

>  <FORMUL>
      570    C34 H30 N2 O5

>  <HET>
 570  D 200      41

>  <HETNAM>
     570 2-(2-BENZOYL-PHENYLAMINO)-3-{4-[2-(5-METHYL-2-PHENYL-OX
   2 570 AZOL-4-YL)-ETHOXY]-PHENYL}-PROPIONIC ACID

>  <HETSYN>
     570 GI262570

>  <Name>
570.pdb

>  <RI>
0

>  <Rbt.Current_Directory>
/home/malgorzata/Desktop/rDOCK_IFD/Wyniki/14a_ppar-gamma

>  <Rbt.Executable>
rbdock ($Id: //depot/dev/client3/rdock/2013.1/src/exe/rbdock.cxx#4 $)

>  <Rbt.Library>
libRbt.so (2013.1, Build901 2013/11/27)

>  <Rbt.Parameter_File>
/home/malgorzata/Desktop/rDock_2013.1_src/data/scripts/soft_docking.prm

>  <Rbt.Receptor>
cavity.prm

>  <SCORE>
-11.9509

>  <SCORE.INTER>
-24.8848

>  <SCORE.INTER.CONST>
1

>  <SCORE.INTER.POLAR>
-0.628237

>  <SCORE.INTER.REPUL>
0.390473

>  <SCORE.INTER.ROT>
12

>  <SCORE.INTER.VDW>
-42.1012

>  <SCORE.INTER.norm>
-0.606946

>  <SCORE.INTRA>
8.59279

>  <SCORE.INTRA.DIHEDRAL>
37.05

>  <SCORE.INTRA.DIHEDRAL.0>
12.9748

>  <SCORE.INTRA.POLAR>
0.058673

>  <SCORE.INTRA.POLAR.0>
-0.058673

>  <SCORE.INTRA.REPUL>
0

>  <SCORE.INTRA.REPUL.0>
0

>  <SCORE.INTRA.VDW>
0.983304

>  <SCORE.INTRA.VDW.0>
-4.98062

>  <SCORE.INTRA.norm>
0.20958

>  <SCORE.RESTR>
5.39098

>  <SCORE.RESTR.CAVITY>
1.0782

>  <SCORE.RESTR.norm>
0.131487

>  <SCORE.SYSTEM>
-1.04984

>  <SCORE.SYSTEM.CONST>
0

>  <SCORE.SYSTEM.DIHEDRAL>
4.56459

>  <SCORE.SYSTEM.POLAR>
-0.372722

>  <SCORE.SYSTEM.REPUL>
0.0467333

>  <SCORE.SYSTEM.VDW>
-2.29855

>  <SCORE.SYSTEM.norm>
-0.0256059

>  <SCORE.heavy>
41

>  <SCORE.norm>
-0.291484

$$$$
570.pdb
  rDOCK(R)          3D
libRbt.so/2013.1/901 2013/11/27
 43 47  0  0  0  0  0  0  0  0999 V2000
   51.6937  -35.5885   20.6951 N   0  0  0  0  0  0
   50.5320  -34.6679   20.4055 C   0  0  0  0  0  0
   49.1456  -35.3734   20.5325 C   0  0  0  0  0  0
   48.3156  -35.3751   19.2438 C   0  0  0  0  0  0
   48.7667  -34.5799   18.1396 C   0  0  0  0  0  0
   47.1128  -36.1472   19.1286 C   0  0  0  0  0  0
   48.0372  -34.5507   16.9359 C   0  0  0  0  0  0
   46.3729  -36.1248   17.9246 C   0  0  0  0  0  0
   46.8335  -35.3117   16.7926 C   0  0  0  0  0  0
   46.1925  -35.1951   15.5222 O   0  0  0  0  0  0
   52.1863  -36.2249   21.9140 C   0  0  0  0  0  0
   53.5469  -35.9732   22.4022 C   0  0  0  0  0  0
   53.9451  -36.6451   23.6168 C   0  0  0  0  0  0
   53.0658  -37.5113   24.3080 C   0  0  0  0  0  0
   51.7652  -37.7417   23.8243 C   0  0  0  0  0  0
   51.3287  -37.1152   22.6551 C   0  0  0  0  0  0
   55.9989  -35.3536   21.1517 C   0  0  0  0  0  0
   56.1953  -35.3336   19.7192 C   0  0  0  0  0  0
   57.4706  -35.6329   19.1586 C   0  0  0  0  0  0
   58.5616  -35.9544   20.0187 C   0  0  0  0  0  0
   58.3770  -35.9775   21.4307 C   0  0  0  0  0  0
   57.1101  -35.6805   21.9908 C   0  0  0  0  0  0
   54.6303  -35.0283   21.7302 C   0  0  0  0  0  0
   54.3741  -33.8069   21.7063 O   0  0  0  0  0  0
   45.5624  -38.0393   12.2615 O   0  0  0  0  0  0
   46.2129  -38.6209   13.3439 C   0  0  0  0  0  0
   45.6916  -37.9653   14.4841 N   0  0  0  0  0  0
   44.7782  -37.0344   14.0379 C   0  0  0  0  0  0
   44.6689  -37.0465   12.6019 C   0  0  0  0  0  0
   43.7912  -36.1873   11.6828 C   0  0  0  0  0  0
   47.1772  -39.6285   13.3424 C   0  0  0  0  0  0
   48.0511  -39.8658   14.4667 C   0  0  0  0  0  0
   49.0185  -40.9025   14.4097 C   0  0  0  0  0  0
   49.1310  -41.7083   13.2468 C   0  0  0  0  0  0
   48.2766  -41.4877   12.1324 C   0  0  0  0  0  0
   47.3073  -40.4547   12.1766 C   0  0  0  0  0  0
   44.7890  -34.8483   15.4386 C   0  0  0  0  0  0
   44.0048  -36.1145   15.0438 C   0  0  0  0  0  0
   51.7097  -32.9310   21.4777 O   0  0  0  0  0  0
   49.5042  -32.9990   21.7886 O   0  0  0  0  0  0
   50.5804  -33.4353   21.2645 C   0  0  0  0  0  0
   52.2295  -35.8041   19.8978 H   0  0  0  0  0  0
   49.0623  -32.2649   21.4092 H   0  0  0  0  0  0
  1  2  1  0  0  0
  1 11  1  0  0  0
  1 42  1  0  0  0
  2  3  1  0  0  0
  2 41  1  0  0  0
  3  4  1  0  0  0
  4  5  2  0  0  0
  4  6  1  0  0  0
  5  7  1  0  0  0
  6  8  2  0  0  0
  7  9  2  0  0  0
  8  9  1  0  0  0
  9 10  1  0  0  0
 10 37  1  0  0  0
 11 12  2  0  0  0
 11 16  1  0  0  0
 12 13  1  0  0  0
 12 23  1  0  0  0
 13 14  2  0  0  0
 14 15  1  0  0  0
 15 16  2  0  0  0
 17 18  2  0  0  0
 17 22  1  0  0  0
 17 23  1  0  0  0
 18 19  1  0  0  0
 19 20  2  0  0  0
 20 21  1  0  0  0
 21 22  2  0  0  0
 23 24  2  0  0  0
 25 26  1  0  0  0
 25 29  1  0  0  0
 26 27  2  0  0  0
 26 31  1  0  0  0
 27 28  1  0  0  0
 28 29  2  0  0  0
 28 38  1  0  0  0
 29 30  1  0  0  0
 31 32  2  0  0  0
 31 36  1  0  0  0
 32 33  1  0  0  0
 33 34  2  0  0  0
 34 35  1  0  0  0
 35 36  2  0  0  0
 37 38  1  0  0  0
 39 41  2  0  0  0
 40 41  1  0  0  0
 40 43  1  0  0  0
M  END
>  <CHROM.0>
-60.75591607,-34.34387412,-123.00748079,-126.83107533

>  <CHROM.1>
-69.57003793,-120.76789531,-119.69444366,38.74098296,-9.44533614,-127.83926388
-106.43763323,-117.83658762,107.51641170,161.03022934,84.95005598,-36.12608869
-101.56239700,49.99056985,-36.42947056,18.14125592,0.71029845,-0.34220274
0.90552284

>  <FORMUL>
      570    C34 H30 N2 O5

>  <HET>
 570  D 200      41

>  <HETNAM>
     570 2-(2-BENZOYL-PHENYLAMINO)-3-{4-[2-(5-METHYL-2-PHENYL-OX
   2 570 AZOL-4-YL)-ETHOXY]-PHENYL}-PROPIONIC ACID

>  <HETSYN>
     570 GI262570

>  <Name>
570.pdb

>  <RI>
0

>  <Rbt.Current_Directory>
/home/malgorzata/Desktop/rDOCK_IFD/Wyniki/14a_ppar-gamma

>  <Rbt.Executable>
rbdock ($Id: //depot/dev/client3/rdock/2013.1/src/exe/rbdock.cxx#4 $)

>  <Rbt.Library>
libRbt.so (2013.1, Build901 2013/11/27)

>  <Rbt.Parameter_File>
/home/malgorzata/Desktop/rDock_2013.1_src/data/scripts/soft_docking.prm

>  <Rbt.Receptor>
cavity.prm

>  <SCORE>
-5.1989

>  <SCORE.INTER>
-28.867

>  <SCORE.INTER.CONST>
1

>  <SCORE.INTER.POLAR>
-0.0398479

>  <SCORE.INTER.REPUL>
0.0148252

>  <SCORE.INTER.ROT>
12

>  <SCORE.INTER.VDW>
-46.2056

>  <SCORE.INTER.norm>
-0.704073

>  <SCORE.INTRA>
13.6149

>  <SCORE.INTRA.DIHEDRAL>
65.2785

>  <SCORE.INTRA.DIHEDRAL.0>
12.9748

>  <SCORE.INTRA.POLAR>
0.058673

>  <SCORE.INTRA.POLAR.0>
-0.058673

>  <SCORE.INTRA.REPUL>
0.000665421

>  <SCORE.INTRA.REPUL.0>
0

>  <SCORE.INTRA.VDW>
0.356425

>  <SCORE.INTRA.VDW.0>
-4.98062

>  <SCORE.INTRA.norm>
0.332072

>  <SCORE.RESTR>
8.41329

>  <SCORE.RESTR.CAVITY>
1.68266

>  <SCORE.RESTR.norm>
0.205202

>  <SCORE.SYSTEM>
1.63985

>  <SCORE.SYSTEM.CONST>
0

>  <SCORE.SYSTEM.DIHEDRAL>
9.23254

>  <SCORE.SYSTEM.POLAR>
-0.264433

>  <SCORE.SYSTEM.REPUL>
0.0467333

>  <SCORE.SYSTEM.VDW>
-2.31101

>  <SCORE.SYSTEM.norm>
0.0399964

>  <SCORE.heavy>
41

>  <SCORE.norm>
-0.126802

$$$$
