TOL.pdb
  rDOCK(R)          3D
libRbt.so/2013.1/901 2013/11/27
 25 26  0  0  0  0  0  0  0  0999 V2000
   15.3973   30.6837   65.4627 C   0  0  0  0  0  0
   15.4158   30.8848   64.1211 F   0  0  0  0  0  0
   15.0963   31.8785   66.0371 F   0  0  0  0  0  0
   14.3770   29.8310   65.7468 F   0  0  0  0  0  0
   16.7409   30.1176   65.9710 C   0  0  0  0  0  0
   17.8825   29.9332   65.1484 C   0  0  0  0  0  0
   17.8253   30.2549   63.8688 O   0  0  0  0  0  0
   18.0108   29.1419   63.0099 C   0  0  0  0  0  0
   19.0638   29.4036   65.7126 C   0  0  0  0  0  0
   19.1195   29.0614   67.0685 C   0  0  0  0  0  0
   17.9874   29.2407   67.8877 C   0  0  0  0  0  0
   18.0562   28.8895   69.2563 C   0  0  0  0  0  0
   16.9276   29.0696   70.0727 C   0  0  0  0  0  0
   15.7455   29.5894   69.5405 C   0  0  0  0  0  0
   15.6826   29.9363   68.1851 C   0  0  0  0  0  0
   16.7993   29.7663   67.3458 C   0  0  0  0  0  0
   19.2917   28.3222   69.9146 C   0  0  0  0  0  0
   19.5175   26.6243   69.9623 S   0  0  0  0  0  0
   20.1981   29.1496   70.4373 N   0  0  0  0  0  0
   20.0346   30.5915   70.2889 C   0  0  0  0  0  0
   21.3724   28.6501   71.1454 C   0  0  0  0  0  0
   22.1529   27.6300   70.2989 C   0  0  0  0  0  0
   22.7745   27.9496   69.3200 O   0  0  0  0  0  0
   22.0985   26.3651   70.7309 O   0  0  0  0  0  0
   22.2251   25.6585   70.1286 H   0  0  0  0  0  0
  1  2  1  0  0  0
  1  3  1  0  0  0
  1  4  1  0  0  0
  1  5  1  0  0  0
  5  6  2  0  0  0
  5 16  1  0  0  0
  6  7  1  0  0  0
  6  9  1  0  0  0
  7  8  1  0  0  0
  9 10  2  0  0  0
 10 11  1  0  0  0
 11 12  2  0  0  0
 11 16  1  0  0  0
 12 13  1  0  0  0
 12 17  1  0  0  0
 13 14  2  0  0  0
 14 15  1  0  0  0
 15 16  2  0  0  0
 17 18  2  0  0  0
 17 19  1  0  0  0
 19 20  1  0  0  0
 19 21  1  0  0  0
 21 22  1  0  0  0
 22 23  2  0  0  0
 22 24  1  0  0  0
 24 25  1  0  0  0
M  END
>  <CHROM.0>
147.65792050,-39.24512196,-110.54149551,4.70131501,-38.84995561,78.44056041
110.01934810,151.28207769,-61.18859492,-61.54190337,179.98178113,-61.41326028
-60.50081437,10.08374393

>  <CHROM.1>
4.62731231,-117.16307302,-90.51168251,53.08955865,70.17913023,154.80345843
18.24201559,29.19297644,67.78330878,2.34669772,0.36456381,-1.42758085

>  <FORMUL>
      TOL    C16 H14 F3 N1 O3 S1

>  <HET>
 TOL  A 320      24

>  <HETNAM>
     TOL TOLRESTAT

>  <Name>
TOL.pdb

>  <RI>
0

>  <Rbt.Current_Directory>
/home/malgorzata/Desktop/rDOCK_IFD/Wyniki/1b_aldose_reductase

>  <Rbt.Executable>
rbdock ($Id: //depot/dev/client3/rdock/2013.1/src/exe/rbdock.cxx#4 $)

>  <Rbt.Library>
libRbt.so (2013.1, Build901 2013/11/27)

>  <Rbt.Parameter_File>
/home/malgorzata/Desktop/rDock_2013.1_src/data/scripts/soft_docking.prm

>  <Rbt.Receptor>
cavity.prm

>  <SCORE>
-48.4344

>  <SCORE.INTER>
-39.1946

>  <SCORE.INTER.CONST>
1

>  <SCORE.INTER.POLAR>
-3.1797

>  <SCORE.INTER.REPUL>
0

>  <SCORE.INTER.ROT>
5

>  <SCORE.INTER.VDW>
-38.7836

>  <SCORE.INTER.norm>
-1.63311

>  <SCORE.INTRA>
-3.25308

>  <SCORE.INTRA.DIHEDRAL>
8.31299

>  <SCORE.INTRA.DIHEDRAL.0>
16.9783

>  <SCORE.INTRA.POLAR>
0

>  <SCORE.INTRA.POLAR.0>
0

>  <SCORE.INTRA.REPUL>
0

>  <SCORE.INTRA.REPUL.0>
0

>  <SCORE.INTRA.VDW>
-4.91567

>  <SCORE.INTRA.VDW.0>
4.87734

>  <SCORE.INTRA.norm>
-0.135545

>  <SCORE.RESTR>
0

>  <SCORE.RESTR.CAVITY>
0

>  <SCORE.RESTR.norm>
0

>  <SCORE.SYSTEM>
-5.98676

>  <SCORE.SYSTEM.CONST>
0

>  <SCORE.SYSTEM.DIHEDRAL>
8.5883

>  <SCORE.SYSTEM.POLAR>
-3.0022

>  <SCORE.SYSTEM.REPUL>
1.16943

>  <SCORE.SYSTEM.VDW>
-5.92059

>  <SCORE.SYSTEM.norm>
-0.249448

>  <SCORE.heavy>
24

>  <SCORE.norm>
-2.0181

$$$$
TOL.pdb
  rDOCK(R)          3D
libRbt.so/2013.1/901 2013/11/27
 25 26  0  0  0  0  0  0  0  0999 V2000
   24.3976   28.8643   72.5684 C   0  0  0  0  0  0
   23.8659   29.6038   73.5741 F   0  0  0  0  0  0
   25.2632   29.6715   71.8997 F   0  0  0  0  0  0
   25.1284   27.8612   73.1239 F   0  0  0  0  0  0
   23.3019   28.2944   71.6417 C   0  0  0  0  0  0
   23.3409   26.9916   71.0802 C   0  0  0  0  0  0
   24.3603   26.1951   71.3464 O   0  0  0  0  0  0
   24.0644   25.2337   72.3460 C   0  0  0  0  0  0
   22.2876   26.5681   70.2404 C   0  0  0  0  0  0
   21.2106   27.4162   69.9585 C   0  0  0  0  0  0
   21.1696   28.7111   70.5121 C   0  0  0  0  0  0
   20.0762   29.5591   70.2184 C   0  0  0  0  0  0
   20.0352   30.8495   70.7715 C   0  0  0  0  0  0
   21.0647   31.2950   71.6037 C   0  0  0  0  0  0
   22.1447   30.4515   71.8923 C   0  0  0  0  0  0
   22.2094   29.1539   71.3513 C   0  0  0  0  0  0
   18.9213   29.1599   69.3303 C   0  0  0  0  0  0
   18.6146   30.0467   67.8965 S   0  0  0  0  0  0
   18.1641   28.1140   69.6651 N   0  0  0  0  0  0
   18.5113   27.3116   70.8328 C   0  0  0  0  0  0
   16.9955   27.7318   68.8788 C   0  0  0  0  0  0
   15.6997   28.3119   69.4711 C   0  0  0  0  0  0
   15.4734   28.3027   70.6525 O   0  0  0  0  0  0
   14.8463   28.8335   68.5829 O   0  0  0  0  0  0
   14.3734   29.6152   68.7907 H   0  0  0  0  0  0
  1  2  1  0  0  0
  1  3  1  0  0  0
  1  4  1  0  0  0
  1  5  1  0  0  0
  5  6  2  0  0  0
  5 16  1  0  0  0
  6  7  1  0  0  0
  6  9  1  0  0  0
  7  8  1  0  0  0
  9 10  2  0  0  0
 10 11  1  0  0  0
 11 12  2  0  0  0
 11 16  1  0  0  0
 12 13  1  0  0  0
 12 17  1  0  0  0
 13 14  2  0  0  0
 14 15  1  0  0  0
 15 16  2  0  0  0
 17 18  2  0  0  0
 17 19  1  0  0  0
 19 20  1  0  0  0
 19 21  1  0  0  0
 21 22  1  0  0  0
 22 23  2  0  0  0
 22 24  1  0  0  0
 24 25  1  0  0  0
M  END
>  <CHROM.0>
-36.88258386,20.30986888,93.01886418,135.05903844,-54.82572978,44.79928685
57.19612119,-142.67474350,-61.18859492,-61.54190337,-75.83036054,-61.41326028
-60.50081437,163.64956688

>  <CHROM.1>
-140.90794374,100.41743367,-118.84819305,-96.23554437,-43.20735519,-141.32138074
20.85016157,28.58292285,70.73783299,-0.07204235,-0.39575742,0.03209878

>  <FORMUL>
      TOL    C16 H14 F3 N1 O3 S1

>  <HET>
 TOL  A 320      24

>  <HETNAM>
     TOL TOLRESTAT

>  <Name>
TOL.pdb

>  <RI>
0

>  <Rbt.Current_Directory>
/home/malgorzata/Desktop/rDOCK_IFD/Wyniki/1b_aldose_reductase

>  <Rbt.Executable>
rbdock ($Id: //depot/dev/client3/rdock/2013.1/src/exe/rbdock.cxx#4 $)

>  <Rbt.Library>
libRbt.so (2013.1, Build901 2013/11/27)

>  <Rbt.Parameter_File>
/home/malgorzata/Desktop/rDock_2013.1_src/data/scripts/soft_docking.prm

>  <Rbt.Receptor>
cavity.prm

>  <SCORE>
-43.6795

>  <SCORE.INTER>
-33.9809

>  <SCORE.INTER.CONST>
1

>  <SCORE.INTER.POLAR>
-2.92435

>  <SCORE.INTER.REPUL>
0.333655

>  <SCORE.INTER.ROT>
5

>  <SCORE.INTER.VDW>
-36.1063

>  <SCORE.INTER.norm>
-1.41587

>  <SCORE.INTRA>
-1.26123

>  <SCORE.INTRA.DIHEDRAL>
10.8326

>  <SCORE.INTRA.DIHEDRAL.0>
16.9783

>  <SCORE.INTRA.POLAR>
0

>  <SCORE.INTRA.POLAR.0>
0

>  <SCORE.INTRA.REPUL>
0

>  <SCORE.INTRA.REPUL.0>
0

>  <SCORE.INTRA.VDW>
-3.42775

>  <SCORE.INTRA.VDW.0>
4.87734

>  <SCORE.INTRA.norm>
-0.0525511

>  <SCORE.RESTR>
0.809661

>  <SCORE.RESTR.CAVITY>
0.809661

>  <SCORE.RESTR.norm>
0.0337359

>  <SCORE.SYSTEM>
-9.24707

>  <SCORE.SYSTEM.CONST>
0

>  <SCORE.SYSTEM.DIHEDRAL>
13.0882

>  <SCORE.SYSTEM.POLAR>
-4.03757

>  <SCORE.SYSTEM.REPUL>
1.16943

>  <SCORE.SYSTEM.VDW>
-7.91058

>  <SCORE.SYSTEM.norm>
-0.385295

>  <SCORE.heavy>
24

>  <SCORE.norm>
-1.81998

$$$$
TOL.pdb
  rDOCK(R)          3D
libRbt.so/2013.1/901 2013/11/27
 25 26  0  0  0  0  0  0  0  0999 V2000
   16.0550   29.9384   63.3666 C   0  0  0  0  0  0
   16.1241   29.5035   62.0832 F   0  0  0  0  0  0
   16.4539   31.2380   63.3653 F   0  0  0  0  0  0
   14.7504   29.9171   63.7490 F   0  0  0  0  0  0
   16.9153   29.0683   64.3084 C   0  0  0  0  0  0
   17.9020   28.1534   63.8575 C   0  0  0  0  0  0
   18.1220   28.0145   62.5626 O   0  0  0  0  0  0
   18.2994   26.6624   62.1738 C   0  0  0  0  0  0
   18.6325   27.4014   64.8036 C   0  0  0  0  0  0
   18.3945   27.5495   66.1747 C   0  0  0  0  0  0
   17.4140   28.4549   66.6261 C   0  0  0  0  0  0
   17.1820   28.5943   68.0145 C   0  0  0  0  0  0
   16.2053   29.4980   68.4639 C   0  0  0  0  0  0
   15.4665   30.2530   67.5501 C   0  0  0  0  0  0
   15.7004   30.1120   66.1764 C   0  0  0  0  0  0
   16.6736   29.2141   65.7002 C   0  0  0  0  0  0
   17.9334   27.8196   69.0714 C   0  0  0  0  0  0
   17.3439   26.2917   69.5755 S   0  0  0  0  0  0
   19.0535   28.3273   69.5883 N   0  0  0  0  0  0
   19.5911   29.5786   69.0657 C   0  0  0  0  0  0
   19.7766   27.6514   70.6608 C   0  0  0  0  0  0
   20.7297   26.5762   70.1115 C   0  0  0  0  0  0
   20.3360   25.6312   69.4800 O   0  0  0  0  0  0
   22.0263   26.7689   70.3781 O   0  0  0  0  0  0
   22.3172   27.5916   70.7194 H   0  0  0  0  0  0
  1  2  1  0  0  0
  1  3  1  0  0  0
  1  4  1  0  0  0
  1  5  1  0  0  0
  5  6  2  0  0  0
  5 16  1  0  0  0
  6  7  1  0  0  0
  6  9  1  0  0  0
  7  8  1  0  0  0
  9 10  2  0  0  0
 10 11  1  0  0  0
 11 12  2  0  0  0
 11 16  1  0  0  0
 12 13  1  0  0  0
 12 17  1  0  0  0
 13 14  2  0  0  0
 14 15  1  0  0  0
 15 16  2  0  0  0
 17 18  2  0  0  0
 17 19  1  0  0  0
 19 20  1  0  0  0
 19 21  1  0  0  0
 21 22  1  0  0  0
 22 23  2  0  0  0
 22 24  1  0  0  0
 24 25  1  0  0  0
M  END
>  <CHROM.0>
-59.54724524,38.20007883,-111.87123258,-171.81190526,-42.20933459,67.01058020
133.17501074,-163.30496501,-61.18859492,-61.54190337,-90.74872488,-61.41326028
-60.50081437,-111.51764463

>  <CHROM.1>
14.57633595,-138.12733522,-88.76865496,84.39687662,-61.03771369,-11.83310351
17.76809353,28.35207276,66.57382324,2.13968874,0.69106272,-1.61771250

>  <FORMUL>
      TOL    C16 H14 F3 N1 O3 S1

>  <HET>
 TOL  A 320      24

>  <HETNAM>
     TOL TOLRESTAT

>  <Name>
TOL.pdb

>  <RI>
0

>  <Rbt.Current_Directory>
/home/malgorzata/Desktop/rDOCK_IFD/Wyniki/1b_aldose_reductase

>  <Rbt.Executable>
rbdock ($Id: //depot/dev/client3/rdock/2013.1/src/exe/rbdock.cxx#4 $)

>  <Rbt.Library>
libRbt.so (2013.1, Build901 2013/11/27)

>  <Rbt.Parameter_File>
/home/malgorzata/Desktop/rDock_2013.1_src/data/scripts/soft_docking.prm

>  <Rbt.Receptor>
cavity.prm

>  <SCORE>
-40.4954

>  <SCORE.INTER>
-26.3971

>  <SCORE.INTER.CONST>
1

>  <SCORE.INTER.POLAR>
-1.20634

>  <SCORE.INTER.REPUL>
0

>  <SCORE.INTER.ROT>
5

>  <SCORE.INTER.VDW>
-32.6956

>  <SCORE.INTER.norm>
-1.09988

>  <SCORE.INTRA>
-3.43889

>  <SCORE.INTRA.DIHEDRAL>
3.45897

>  <SCORE.INTRA.DIHEDRAL.0>
16.9783

>  <SCORE.INTRA.POLAR>
0

>  <SCORE.INTRA.POLAR.0>
0

>  <SCORE.INTRA.REPUL>
0

>  <SCORE.INTRA.REPUL.0>
0

>  <SCORE.INTRA.VDW>
-4.13069

>  <SCORE.INTRA.VDW.0>
4.87734

>  <SCORE.INTRA.norm>
-0.143287

>  <SCORE.RESTR>
0.208515

>  <SCORE.RESTR.CAVITY>
0.208515

>  <SCORE.RESTR.norm>
0.00868812

>  <SCORE.SYSTEM>
-10.8678

>  <SCORE.SYSTEM.CONST>
0

>  <SCORE.SYSTEM.DIHEDRAL>
12.8586

>  <SCORE.SYSTEM.POLAR>
-4.34888

>  <SCORE.SYSTEM.REPUL>
1.16943

>  <SCORE.SYSTEM.VDW>
-8.35811

>  <SCORE.SYSTEM.norm>
-0.452826

>  <SCORE.heavy>
24

>  <SCORE.norm>
-1.68731

$$$$
TOL.pdb
  rDOCK(R)          3D
libRbt.so/2013.1/901 2013/11/27
 25 26  0  0  0  0  0  0  0  0999 V2000
   23.3777   28.0153   72.3434 C   0  0  0  0  0  0
   23.6750   29.3368   72.2657 F   0  0  0  0  0  0
   24.5357   27.3366   72.1273 F   0  0  0  0  0  0
   22.9838   27.7461   73.6166 F   0  0  0  0  0  0
   22.2769   27.6202   71.3353 C   0  0  0  0  0  0
   22.3872   26.5322   70.4308 C   0  0  0  0  0  0
   23.4826   25.7944   70.4260 O   0  0  0  0  0  0
   23.2170   24.4092   70.5729 C   0  0  0  0  0  0
   21.3219   26.2574   69.5455 C   0  0  0  0  0  0
   20.1639   27.0432   69.5520 C   0  0  0  0  0  0
   20.0517   28.1258   70.4467 C   0  0  0  0  0  0
   18.8767   28.9133   70.4423 C   0  0  0  0  0  0
   18.7650   29.9916   71.3353 C   0  0  0  0  0  0
   19.8042   30.2873   72.2204 C   0  0  0  0  0  0
   20.9653   29.5042   72.2215 C   0  0  0  0  0  0
   21.1020   28.4179   71.3373 C   0  0  0  0  0  0
   17.7054   28.6653   69.5212 C   0  0  0  0  0  0
   16.3680   27.7541   70.0845 S   0  0  0  0  0  0
   17.7200   29.1705   68.2867 N   0  0  0  0  0  0
   18.8208   30.0315   67.8685 C   0  0  0  0  0  0
   16.6460   28.9004   67.3362 C   0  0  0  0  0  0
   16.0080   30.2006   66.8178 C   0  0  0  0  0  0
   16.6673   31.1351   66.4450 O   0  0  0  0  0  0
   14.6705   30.2171   66.8035 O   0  0  0  0  0  0
   14.1889   29.6191   67.3404 H   0  0  0  0  0  0
  1  2  1  0  0  0
  1  3  1  0  0  0
  1  4  1  0  0  0
  1  5  1  0  0  0
  5  6  2  0  0  0
  5 16  1  0  0  0
  6  7  1  0  0  0
  6  9  1  0  0  0
  7  8  1  0  0  0
  9 10  2  0  0  0
 10 11  1  0  0  0
 11 12  2  0  0  0
 11 16  1  0  0  0
 12 13  1  0  0  0
 12 17  1  0  0  0
 13 14  2  0  0  0
 14 15  1  0  0  0
 15 16  2  0  0  0
 17 18  2  0  0  0
 17 19  1  0  0  0
 19 20  1  0  0  0
 19 21  1  0  0  0
 21 22  1  0  0  0
 22 23  2  0  0  0
 22 24  1  0  0  0
 24 25  1  0  0  0
M  END
>  <CHROM.0>
-1.37101166,-78.59448952,-91.37858335,123.91378831,-47.99697797,51.32429818
172.57210660,-106.51633860,-61.18859492,-61.54190337,-169.19781522,-61.41326028
-60.50081437,-104.32444812

>  <CHROM.1>
129.21843171,126.44480448,96.21082155,123.27141024,46.43747025,20.31346134
19.98289759,28.35736756,70.17287982,0.05738971,-0.59408762,0.63460624

>  <FORMUL>
      TOL    C16 H14 F3 N1 O3 S1

>  <HET>
 TOL  A 320      24

>  <HETNAM>
     TOL TOLRESTAT

>  <Name>
TOL.pdb

>  <RI>
0

>  <Rbt.Current_Directory>
/home/malgorzata/Desktop/rDOCK_IFD/Wyniki/1b_aldose_reductase

>  <Rbt.Executable>
rbdock ($Id: //depot/dev/client3/rdock/2013.1/src/exe/rbdock.cxx#4 $)

>  <Rbt.Library>
libRbt.so (2013.1, Build901 2013/11/27)

>  <Rbt.Parameter_File>
/home/malgorzata/Desktop/rDock_2013.1_src/data/scripts/soft_docking.prm

>  <Rbt.Receptor>
cavity.prm

>  <SCORE>
-45.4781

>  <SCORE.INTER>
-32.5678

>  <SCORE.INTER.CONST>
1

>  <SCORE.INTER.POLAR>
-3.45293

>  <SCORE.INTER.REPUL>
0.15261

>  <SCORE.INTER.ROT>
5

>  <SCORE.INTER.VDW>
-31.9908

>  <SCORE.INTER.norm>
-1.35699

>  <SCORE.INTRA>
-2.88038

>  <SCORE.INTRA.DIHEDRAL>
5.98629

>  <SCORE.INTRA.DIHEDRAL.0>
16.9783

>  <SCORE.INTRA.POLAR>
0

>  <SCORE.INTRA.POLAR.0>
0

>  <SCORE.INTRA.REPUL>
0

>  <SCORE.INTRA.REPUL.0>
0

>  <SCORE.INTRA.VDW>
-4.07764

>  <SCORE.INTRA.VDW.0>
4.87734

>  <SCORE.INTRA.norm>
-0.120016

>  <SCORE.RESTR>
0.274339

>  <SCORE.RESTR.CAVITY>
0.274339

>  <SCORE.RESTR.norm>
0.0114308

>  <SCORE.SYSTEM>
-10.3043

>  <SCORE.SYSTEM.CONST>
0

>  <SCORE.SYSTEM.DIHEDRAL>
7.88019

>  <SCORE.SYSTEM.POLAR>
-3.45781

>  <SCORE.SYSTEM.REPUL>
1.16943

>  <SCORE.SYSTEM.VDW>
-8.33496

>  <SCORE.SYSTEM.norm>
-0.429344

>  <SCORE.heavy>
24

>  <SCORE.norm>
-1.89492

$$$$
TOL.pdb
  rDOCK(R)          3D
libRbt.so/2013.1/901 2013/11/27
 25 26  0  0  0  0  0  0  0  0999 V2000
   14.8561   30.5628   65.8239 C   0  0  0  0  0  0
   14.3335   31.6790   66.3911 F   0  0  0  0  0  0
   13.9507   29.5655   66.0073 F   0  0  0  0  0  0
   14.9546   30.7772   64.4849 F   0  0  0  0  0  0
   16.2348   30.2124   66.4246 C   0  0  0  0  0  0
   17.3828   29.9123   65.6460 C   0  0  0  0  0  0
   17.3005   29.9250   64.3279 O   0  0  0  0  0  0
   17.7352   28.7124   63.7350 C   0  0  0  0  0  0
   18.5973   29.6005   66.2955 C   0  0  0  0  0  0
   18.6796   29.5854   67.6925 C   0  0  0  0  0  0
   17.5415   29.8804   68.4688 C   0  0  0  0  0  0
   17.6375   29.8604   69.8799 C   0  0  0  0  0  0
   16.5028   30.1557   70.6533 C   0  0  0  0  0  0
   15.2882   30.4654   70.0371 C   0  0  0  0  0  0
   15.1984   30.4847   68.6396 C   0  0  0  0  0  0
   16.3204   30.1932   67.8420 C   0  0  0  0  0  0
   18.9089   29.5370   70.6287 C   0  0  0  0  0  0
   19.9451   30.8103   71.1199 S   0  0  0  0  0  0
   19.2019   28.2666   70.9109 N   0  0  0  0  0  0
   18.2516   27.2117   70.5762 C   0  0  0  0  0  0
   20.4509   27.8970   71.5691 C   0  0  0  0  0  0
   21.5930   27.7137   70.5551 C   0  0  0  0  0  0
   21.6991   26.7241   69.8795 O   0  0  0  0  0  0
   22.4549   28.7333   70.4714 O   0  0  0  0  0  0
   22.2149   29.5777   70.7989 H   0  0  0  0  0  0
  1  2  1  0  0  0
  1  3  1  0  0  0
  1  4  1  0  0  0
  1  5  1  0  0  0
  5  6  2  0  0  0
  5 16  1  0  0  0
  6  7  1  0  0  0
  6  9  1  0  0  0
  7  8  1  0  0  0
  9 10  2  0  0  0
 10 11  1  0  0  0
 11 12  2  0  0  0
 11 16  1  0  0  0
 12 13  1  0  0  0
 12 17  1  0  0  0
 13 14  2  0  0  0
 14 15  1  0  0  0
 15 16  2  0  0  0
 17 18  2  0  0  0
 17 19  1  0  0  0
 19 20  1  0  0  0
 19 21  1  0  0  0
 21 22  1  0  0  0
 22 23  2  0  0  0
 22 24  1  0  0  0
 24 25  1  0  0  0
M  END
>  <CHROM.0>
11.99888423,51.34361953,-90.07255900,177.86164075,8.39067380,47.24053294
144.36200201,179.33545568,-61.18859492,-61.54190337,43.37274503,-61.41326028
-60.50081437,-104.78869417

>  <CHROM.1>
-131.32688599,-125.54427329,93.44962169,-85.94261140,-77.80851622,-18.39275724
17.76344613,29.58936342,68.28652169,2.42040457,0.42402637,-1.68289136

>  <FORMUL>
      TOL    C16 H14 F3 N1 O3 S1

>  <HET>
 TOL  A 320      24

>  <HETNAM>
     TOL TOLRESTAT

>  <Name>
TOL.pdb

>  <RI>
0

>  <Rbt.Current_Directory>
/home/malgorzata/Desktop/rDOCK_IFD/Wyniki/1b_aldose_reductase

>  <Rbt.Executable>
rbdock ($Id: //depot/dev/client3/rdock/2013.1/src/exe/rbdock.cxx#4 $)

>  <Rbt.Library>
libRbt.so (2013.1, Build901 2013/11/27)

>  <Rbt.Parameter_File>
/home/malgorzata/Desktop/rDock_2013.1_src/data/scripts/soft_docking.prm

>  <Rbt.Receptor>
cavity.prm

>  <SCORE>
-43.733

>  <SCORE.INTER>
-28.5689

>  <SCORE.INTER.CONST>
1

>  <SCORE.INTER.POLAR>
-1.54882

>  <SCORE.INTER.REPUL>
0.00271138

>  <SCORE.INTER.ROT>
5

>  <SCORE.INTER.VDW>
-33.7164

>  <SCORE.INTER.norm>
-1.19037

>  <SCORE.INTRA>
-5.69886

>  <SCORE.INTRA.DIHEDRAL>
5.70616

>  <SCORE.INTRA.DIHEDRAL.0>
16.9783

>  <SCORE.INTRA.POLAR>
-0.305916

>  <SCORE.INTRA.POLAR.0>
0

>  <SCORE.INTRA.REPUL>
0

>  <SCORE.INTRA.REPUL.0>
0

>  <SCORE.INTRA.VDW>
-5.79998

>  <SCORE.INTRA.VDW.0>
4.87734

>  <SCORE.INTRA.norm>
-0.237453

>  <SCORE.RESTR>
0.139742

>  <SCORE.RESTR.CAVITY>
0.139742

>  <SCORE.RESTR.norm>
0.00582259

>  <SCORE.SYSTEM>
-9.60505

>  <SCORE.SYSTEM.CONST>
0

>  <SCORE.SYSTEM.DIHEDRAL>
11.1965

>  <SCORE.SYSTEM.POLAR>
-4.10279

>  <SCORE.SYSTEM.REPUL>
1.16943

>  <SCORE.SYSTEM.VDW>
-7.10097

>  <SCORE.SYSTEM.norm>
-0.400211

>  <SCORE.heavy>
24

>  <SCORE.norm>
-1.82221

$$$$
TOL.pdb
  rDOCK(R)          3D
libRbt.so/2013.1/901 2013/11/27
 25 26  0  0  0  0  0  0  0  0999 V2000
   16.2928   28.6506   64.9378 C   0  0  0  0  0  0
   16.6871   28.5506   63.6434 F   0  0  0  0  0  0
   15.5049   29.7549   65.0265 F   0  0  0  0  0  0
   15.5130   27.5744   65.2250 F   0  0  0  0  0  0
   17.5014   28.7216   65.8961 C   0  0  0  0  0  0
   18.8494   28.5648   65.4810 C   0  0  0  0  0  0
   19.1198   28.3443   64.2072 O   0  0  0  0  0  0
   19.1422   26.9653   63.8773 C   0  0  0  0  0  0
   19.8827   28.6439   66.4403 C   0  0  0  0  0  0
   19.5917   28.8750   67.7895 C   0  0  0  0  0  0
   18.2545   29.0287   68.2059 C   0  0  0  0  0  0
   17.9736   29.2604   69.5728 C   0  0  0  0  0  0
   16.6405   29.4147   69.9870 C   0  0  0  0  0  0
   15.5986   29.3390   69.0598 C   0  0  0  0  0  0
   15.8819   29.1102   67.7075 C   0  0  0  0  0  0
   17.2089   28.9527   67.2664 C   0  0  0  0  0  0
   19.0364   29.3573   70.6418 C   0  0  0  0  0  0
   19.6229   30.8976   71.1103 S   0  0  0  0  0  0
   19.4944   28.2447   71.2177 N   0  0  0  0  0  0
   18.9027   26.9555   70.8774 C   0  0  0  0  0  0
   20.5697   28.2799   72.2039 C   0  0  0  0  0  0
   21.8464   27.6046   71.6743 C   0  0  0  0  0  0
   22.5073   28.0842   70.7911 O   0  0  0  0  0  0
   22.1743   26.4520   72.2686 O   0  0  0  0  0  0
   21.8939   26.2810   73.1462 H   0  0  0  0  0  0
  1  2  1  0  0  0
  1  3  1  0  0  0
  1  4  1  0  0  0
  1  5  1  0  0  0
  5  6  2  0  0  0
  5 16  1  0  0  0
  6  7  1  0  0  0
  6  9  1  0  0  0
  7  8  1  0  0  0
  9 10  2  0  0  0
 10 11  1  0  0  0
 11 12  2  0  0  0
 11 16  1  0  0  0
 12 13  1  0  0  0
 12 17  1  0  0  0
 13 14  2  0  0  0
 14 15  1  0  0  0
 15 16  2  0  0  0
 17 18  2  0  0  0
 17 19  1  0  0  0
 19 20  1  0  0  0
 19 21  1  0  0  0
 21 22  1  0  0  0
 22 23  2  0  0  0
 22 24  1  0  0  0
 24 25  1  0  0  0
M  END
>  <CHROM.0>
68.64802105,53.74905878,-78.44349116,155.61069727,123.24432077,163.52434118
79.21540434,117.26195109,-61.18859492,-61.54190337,-176.93497970,-61.41326028
-60.50081437,91.91750274

>  <CHROM.1>
-5.93528953,-89.81553444,95.59165189,-112.99894432,69.27263168,-25.68992379
18.51824642,28.64053388,68.16632027,2.14575501,0.40782994,-1.79951427

>  <FORMUL>
      TOL    C16 H14 F3 N1 O3 S1

>  <HET>
 TOL  A 320      24

>  <HETNAM>
     TOL TOLRESTAT

>  <Name>
TOL.pdb

>  <RI>
0

>  <Rbt.Current_Directory>
/home/malgorzata/Desktop/rDOCK_IFD/Wyniki/1b_aldose_reductase

>  <Rbt.Executable>
rbdock ($Id: //depot/dev/client3/rdock/2013.1/src/exe/rbdock.cxx#4 $)

>  <Rbt.Library>
libRbt.so (2013.1, Build901 2013/11/27)

>  <Rbt.Parameter_File>
/home/malgorzata/Desktop/rDock_2013.1_src/data/scripts/soft_docking.prm

>  <Rbt.Receptor>
cavity.prm

>  <SCORE>
-40.223

>  <SCORE.INTER>
-28.7181

>  <SCORE.INTER.CONST>
1

>  <SCORE.INTER.POLAR>
-0.581487

>  <SCORE.INTER.REPUL>
0

>  <SCORE.INTER.ROT>
5

>  <SCORE.INTER.VDW>
-37.1411

>  <SCORE.INTER.norm>
-1.19659

>  <SCORE.INTRA>
-5.14455

>  <SCORE.INTRA.DIHEDRAL>
9.36939

>  <SCORE.INTRA.DIHEDRAL.0>
16.9783

>  <SCORE.INTRA.POLAR>
0

>  <SCORE.INTRA.POLAR.0>
0

>  <SCORE.INTRA.REPUL>
0

>  <SCORE.INTRA.REPUL.0>
0

>  <SCORE.INTRA.VDW>
-7.01843

>  <SCORE.INTRA.VDW.0>
4.87734

>  <SCORE.INTRA.norm>
-0.214356

>  <SCORE.RESTR>
0

>  <SCORE.RESTR.CAVITY>
0

>  <SCORE.RESTR.norm>
0

>  <SCORE.SYSTEM>
-6.36034

>  <SCORE.SYSTEM.CONST>
0

>  <SCORE.SYSTEM.DIHEDRAL>
15.268

>  <SCORE.SYSTEM.POLAR>
-3.79252

>  <SCORE.SYSTEM.REPUL>
1.27275

>  <SCORE.SYSTEM.VDW>
-7.46352

>  <SCORE.SYSTEM.norm>
-0.265014

>  <SCORE.heavy>
24

>  <SCORE.norm>
-1.67596

$$$$
TOL.pdb
  rDOCK(R)          3D
libRbt.so/2013.1/901 2013/11/27
 25 26  0  0  0  0  0  0  0  0999 V2000
   22.9623   26.9853   72.7839 C   0  0  0  0  0  0
   23.2796   26.2159   71.7123 F   0  0  0  0  0  0
   22.4551   26.1528   73.7315 F   0  0  0  0  0  0
   24.1137   27.5095   73.2819 F   0  0  0  0  0  0
   21.9700   28.1060   72.4049 C   0  0  0  0  0  0
   22.1398   29.4676   72.7672 C   0  0  0  0  0  0
   23.1979   29.8303   73.4695 O   0  0  0  0  0  0
   23.0515   29.5824   74.8580 C   0  0  0  0  0  0
   21.1697   30.4149   72.3728 C   0  0  0  0  0  0
   20.0485   30.0260   71.6310 C   0  0  0  0  0  0
   19.8752   28.6748   71.2715 C   0  0  0  0  0  0
   18.7368   28.2944   70.5229 C   0  0  0  0  0  0
   18.5653   26.9474   70.1638 C   0  0  0  0  0  0
   19.5081   25.9890   70.5425 C   0  0  0  0  0  0
   20.6339   26.3707   71.2830 C   0  0  0  0  0  0
   20.8296   27.7137   71.6550 C   0  0  0  0  0  0
   17.6691   29.2628   70.0713 C   0  0  0  0  0  0
   16.1962   29.3596   70.9415 S   0  0  0  0  0  0
   17.8915   30.0403   69.0105 N   0  0  0  0  0  0
   19.1933   30.0149   68.3529 C   0  0  0  0  0  0
   16.8660   30.9405   68.4927 C   0  0  0  0  0  0
   16.0568   30.2857   67.3601 C   0  0  0  0  0  0
   16.3717   30.3884   66.2037 O   0  0  0  0  0  0
   14.9840   29.5887   67.7507 O   0  0  0  0  0  0
   14.2297   29.5403   67.1970 H   0  0  0  0  0  0
  1  2  1  0  0  0
  1  3  1  0  0  0
  1  4  1  0  0  0
  1  5  1  0  0  0
  5  6  2  0  0  0
  5 16  1  0  0  0
  6  7  1  0  0  0
  6  9  1  0  0  0
  7  8  1  0  0  0
  9 10  2  0  0  0
 10 11  1  0  0  0
 11 12  2  0  0  0
 11 16  1  0  0  0
 12 13  1  0  0  0
 12 17  1  0  0  0
 13 14  2  0  0  0
 14 15  1  0  0  0
 15 16  2  0  0  0
 17 18  2  0  0  0
 17 19  1  0  0  0
 19 20  1  0  0  0
 19 21  1  0  0  0
 21 22  1  0  0  0
 22 23  2  0  0  0
 22 24  1  0  0  0
 24 25  1  0  0  0
M  END
>  <CHROM.0>
99.39626535,70.59469276,128.59595850,121.96458285,39.75458213,66.81805680
166.61582275,-149.51330652,-61.18859492,-61.54190337,-40.92459277,-61.41326028
-60.50081437,3.93632727

>  <CHROM.1>
-131.60008525,-81.15102264,-100.73300623,-94.09435513,-90.96795704,148.37333697
19.81629366,28.66579225,70.97762008,0.13391982,0.66733257,-2.93975944

>  <FORMUL>
      TOL    C16 H14 F3 N1 O3 S1

>  <HET>
 TOL  A 320      24

>  <HETNAM>
     TOL TOLRESTAT

>  <Name>
TOL.pdb

>  <RI>
0

>  <Rbt.Current_Directory>
/home/malgorzata/Desktop/rDOCK_IFD/Wyniki/1b_aldose_reductase

>  <Rbt.Executable>
rbdock ($Id: //depot/dev/client3/rdock/2013.1/src/exe/rbdock.cxx#4 $)

>  <Rbt.Library>
libRbt.so (2013.1, Build901 2013/11/27)

>  <Rbt.Parameter_File>
/home/malgorzata/Desktop/rDock_2013.1_src/data/scripts/soft_docking.prm

>  <Rbt.Receptor>
cavity.prm

>  <SCORE>
-40.674

>  <SCORE.INTER>
-29.0083

>  <SCORE.INTER.CONST>
1

>  <SCORE.INTER.POLAR>
-2.34216

>  <SCORE.INTER.REPUL>
0

>  <SCORE.INTER.ROT>
5

>  <SCORE.INTER.VDW>
-31.445

>  <SCORE.INTER.norm>
-1.20868

>  <SCORE.INTRA>
-4.679

>  <SCORE.INTRA.DIHEDRAL>
10.8803

>  <SCORE.INTRA.DIHEDRAL.0>
16.9783

>  <SCORE.INTRA.POLAR>
0

>  <SCORE.INTRA.POLAR.0>
0

>  <SCORE.INTRA.REPUL>
0

>  <SCORE.INTRA.REPUL.0>
0

>  <SCORE.INTRA.VDW>
-6.85505

>  <SCORE.INTRA.VDW.0>
4.87734

>  <SCORE.INTRA.norm>
-0.194958

>  <SCORE.RESTR>
0

>  <SCORE.RESTR.CAVITY>
0

>  <SCORE.RESTR.norm>
0

>  <SCORE.SYSTEM>
-6.98669

>  <SCORE.SYSTEM.CONST>
0

>  <SCORE.SYSTEM.DIHEDRAL>
13.6995

>  <SCORE.SYSTEM.POLAR>
-3.76701

>  <SCORE.SYSTEM.REPUL>
1.16943

>  <SCORE.SYSTEM.VDW>
-6.87577

>  <SCORE.SYSTEM.norm>
-0.291112

>  <SCORE.heavy>
24

>  <SCORE.norm>
-1.69475

$$$$
TOL.pdb
  rDOCK(R)          3D
libRbt.so/2013.1/901 2013/11/27
 25 26  0  0  0  0  0  0  0  0999 V2000
   23.9901   28.9919   72.8041 C   0  0  0  0  0  0
   24.2485   30.1778   72.1978 F   0  0  0  0  0  0
   25.1647   28.3093   72.8536 F   0  0  0  0  0  0
   23.6172   29.2468   74.0866 F   0  0  0  0  0  0
   22.8907   28.2018   72.0616 C   0  0  0  0  0  0
   23.0366   26.8566   71.6336 C   0  0  0  0  0  0
   24.1664   26.2145   71.8690 O   0  0  0  0  0  0
   24.0948   25.3672   73.0039 C   0  0  0  0  0  0
   21.9691   26.2257   70.9578 C   0  0  0  0  0  0
   20.7745   26.9105   70.7080 C   0  0  0  0  0  0
   20.6268   28.2469   71.1291 C   0  0  0  0  0  0
   19.4149   28.9285   70.8692 C   0  0  0  0  0  0
   19.2678   30.2603   71.2904 C   0  0  0  0  0  0
   20.3082   30.9094   71.9590 C   0  0  0  0  0  0
   21.5060   30.2302   72.2146 C   0  0  0  0  0  0
   21.6785   28.8953   71.8038 C   0  0  0  0  0  0
   18.2396   28.3047   70.1540 C   0  0  0  0  0  0
   18.1524   28.3874   68.4447 S   0  0  0  0  0  0
   17.2925   27.6851   70.8600 N   0  0  0  0  0  0
   17.4447   27.5356   72.3031 C   0  0  0  0  0  0
   16.1032   27.1288   70.2228 C   0  0  0  0  0  0
   15.0001   28.1883   70.0592 C   0  0  0  0  0  0
   14.8731   28.8327   69.0515 O   0  0  0  0  0  0
   14.1880   28.3380   71.1116 O   0  0  0  0  0  0
   13.9709   29.1967   71.4174 H   0  0  0  0  0  0
  1  2  1  0  0  0
  1  3  1  0  0  0
  1  4  1  0  0  0
  1  5  1  0  0  0
  5  6  2  0  0  0
  5 16  1  0  0  0
  6  7  1  0  0  0
  6  9  1  0  0  0
  7  8  1  0  0  0
  9 10  2  0  0  0
 10 11  1  0  0  0
 11 12  2  0  0  0
 11 16  1  0  0  0
 12 13  1  0  0  0
 12 17  1  0  0  0
 13 14  2  0  0  0
 14 15  1  0  0  0
 15 16  2  0  0  0
 17 18  2  0  0  0
 17 19  1  0  0  0
 19 20  1  0  0  0
 19 21  1  0  0  0
 21 22  1  0  0  0
 22 23  2  0  0  0
 22 24  1  0  0  0
 24 25  1  0  0  0
M  END
>  <CHROM.0>
-118.71592023,47.76141994,161.63562334,-173.12881562,-66.60127494,56.21095614
130.38006237,-151.25856310,-61.18859492,-61.54190337,-168.39686926,-61.41326028
-60.50081437,39.10436684

>  <CHROM.1>
127.41631764,99.11760288,-88.20459693,-85.63521795,93.72198721,134.49475012
20.31574667,28.28538887,71.32016546,0.05481802,-0.31124348,0.23752079

>  <FORMUL>
      TOL    C16 H14 F3 N1 O3 S1

>  <HET>
 TOL  A 320      24

>  <HETNAM>
     TOL TOLRESTAT

>  <Name>
TOL.pdb

>  <RI>
0

>  <Rbt.Current_Directory>
/home/malgorzata/Desktop/rDOCK_IFD/Wyniki/1b_aldose_reductase

>  <Rbt.Executable>
rbdock ($Id: //depot/dev/client3/rdock/2013.1/src/exe/rbdock.cxx#4 $)

>  <Rbt.Library>
libRbt.so (2013.1, Build901 2013/11/27)

>  <Rbt.Parameter_File>
/home/malgorzata/Desktop/rDock_2013.1_src/data/scripts/soft_docking.prm

>  <Rbt.Receptor>
cavity.prm

>  <SCORE>
-45.865

>  <SCORE.INTER>
-31.0318

>  <SCORE.INTER.CONST>
1

>  <SCORE.INTER.POLAR>
-1.00991

>  <SCORE.INTER.REPUL>
0

>  <SCORE.INTER.ROT>
5

>  <SCORE.INTER.VDW>
-37.9981

>  <SCORE.INTER.norm>
-1.29299

>  <SCORE.INTRA>
-4.46336

>  <SCORE.INTRA.DIHEDRAL>
16.7789

>  <SCORE.INTRA.DIHEDRAL.0>
16.9783

>  <SCORE.INTRA.POLAR>
0

>  <SCORE.INTRA.POLAR.0>
0

>  <SCORE.INTRA.REPUL>
0

>  <SCORE.INTRA.REPUL.0>
0

>  <SCORE.INTRA.VDW>
-7.81915

>  <SCORE.INTRA.VDW.0>
4.87734

>  <SCORE.INTRA.norm>
-0.185973

>  <SCORE.RESTR>
0.22871

>  <SCORE.RESTR.CAVITY>
0.22871

>  <SCORE.RESTR.norm>
0.00952957

>  <SCORE.SYSTEM>
-10.5985

>  <SCORE.SYSTEM.CONST>
0

>  <SCORE.SYSTEM.DIHEDRAL>
7.27283

>  <SCORE.SYSTEM.POLAR>
-4.09204

>  <SCORE.SYSTEM.REPUL>
1.16943

>  <SCORE.SYSTEM.VDW>
-6.16914

>  <SCORE.SYSTEM.norm>
-0.441605

>  <SCORE.heavy>
24

>  <SCORE.norm>
-1.91104

$$$$
TOL.pdb
  rDOCK(R)          3D
libRbt.so/2013.1/901 2013/11/27
 25 26  0  0  0  0  0  0  0  0999 V2000
   20.2403   29.3487   71.6795 C   0  0  0  0  0  0
   19.4450   28.5598   72.4448 F   0  0  0  0  0  0
   19.8525   30.6329   71.9000 F   0  0  0  0  0  0
   21.5160   29.2287   72.1345 F   0  0  0  0  0  0
   20.1538   28.9647   70.1864 C   0  0  0  0  0  0
   21.1996   28.3224   69.4738 C   0  0  0  0  0  0
   22.3256   28.0217   70.0951 O   0  0  0  0  0  0
   22.3460   26.6931   70.5904 C   0  0  0  0  0  0
   21.0199   28.0175   68.1067 C   0  0  0  0  0  0
   19.8263   28.3403   67.4514 C   0  0  0  0  0  0
   18.7867   28.9802   68.1548 C   0  0  0  0  0  0
   17.5857   29.3025   67.4805 C   0  0  0  0  0  0
   16.5493   29.9393   68.1827 C   0  0  0  0  0  0
   16.7008   30.2545   69.5350 C   0  0  0  0  0  0
   17.8916   29.9327   70.1984 C   0  0  0  0  0  0
   18.9449   29.2940   69.5180 C   0  0  0  0  0  0
   17.3363   28.9986   66.0220 C   0  0  0  0  0  0
   18.1682   29.8930   64.8203 S   0  0  0  0  0  0
   16.4833   28.0290   65.6880 N   0  0  0  0  0  0
   15.8701   27.2120   66.7293 C   0  0  0  0  0  0
   16.1551   27.7445   64.2946 C   0  0  0  0  0  0
   17.2191   26.8521   63.6329 C   0  0  0  0  0  0
   18.2773   27.2845   63.2585 O   0  0  0  0  0  0
   16.8891   25.5616   63.5095 O   0  0  0  0  0  0
   16.2125   25.1977   64.0460 H   0  0  0  0  0  0
  1  2  1  0  0  0
  1  3  1  0  0  0
  1  4  1  0  0  0
  1  5  1  0  0  0
  5  6  2  0  0  0
  5 16  1  0  0  0
  6  7  1  0  0  0
  6  9  1  0  0  0
  7  8  1  0  0  0
  9 10  2  0  0  0
 10 11  1  0  0  0
 11 12  2  0  0  0
 11 16  1  0  0  0
 12 13  1  0  0  0
 12 17  1  0  0  0
 13 14  2  0  0  0
 14 15  1  0  0  0
 15 16  2  0  0  0
 17 18  2  0  0  0
 17 19  1  0  0  0
 19 20  1  0  0  0
 19 21  1  0  0  0
 21 22  1  0  0  0
 22 23  2  0  0  0
 22 24  1  0  0  0
 24 25  1  0  0  0
M  END
>  <CHROM.0>
-2.49964550,-6.14456874,-168.97337620,179.10267981,-149.25239488,65.12022609
140.30363444,-69.34845752,-61.18859492,-61.54190337,-175.73335489,-61.41326028
-60.50081437,-170.53840038

>  <CHROM.1>
-108.66227081,94.74420122,-71.32914674,82.30675646,-77.71387282,-20.09913004
18.81337486,28.59975125,68.06569568,1.03758504,-0.47683769,1.12251147

>  <FORMUL>
      TOL    C16 H14 F3 N1 O3 S1

>  <HET>
 TOL  A 320      24

>  <HETNAM>
     TOL TOLRESTAT

>  <Name>
TOL.pdb

>  <RI>
0

>  <Rbt.Current_Directory>
/home/malgorzata/Desktop/rDOCK_IFD/Wyniki/1b_aldose_reductase

>  <Rbt.Executable>
rbdock ($Id: //depot/dev/client3/rdock/2013.1/src/exe/rbdock.cxx#4 $)

>  <Rbt.Library>
libRbt.so (2013.1, Build901 2013/11/27)

>  <Rbt.Parameter_File>
/home/malgorzata/Desktop/rDock_2013.1_src/data/scripts/soft_docking.prm

>  <Rbt.Receptor>
cavity.prm

>  <SCORE>
-35.992

>  <SCORE.INTER>
-23.6018

>  <SCORE.INTER.CONST>
1

>  <SCORE.INTER.POLAR>
-0.25589

>  <SCORE.INTER.REPUL>
0

>  <SCORE.INTER.ROT>
5

>  <SCORE.INTER.VDW>
-33.1318

>  <SCORE.INTER.norm>
-0.98341

>  <SCORE.INTRA>
-5.62847

>  <SCORE.INTRA.DIHEDRAL>
6.60446

>  <SCORE.INTRA.DIHEDRAL.0>
16.9783

>  <SCORE.INTRA.POLAR>
0

>  <SCORE.INTRA.POLAR.0>
0

>  <SCORE.INTRA.REPUL>
0

>  <SCORE.INTRA.REPUL.0>
0

>  <SCORE.INTRA.VDW>
-6.94936

>  <SCORE.INTRA.VDW.0>
4.87734

>  <SCORE.INTRA.norm>
-0.23452

>  <SCORE.RESTR>
0.224326

>  <SCORE.RESTR.CAVITY>
0.224326

>  <SCORE.RESTR.norm>
0.00934691

>  <SCORE.SYSTEM>
-6.98605

>  <SCORE.SYSTEM.CONST>
0

>  <SCORE.SYSTEM.DIHEDRAL>
12.6338

>  <SCORE.SYSTEM.POLAR>
-3.4697

>  <SCORE.SYSTEM.REPUL>
1.16943

>  <SCORE.SYSTEM.VDW>
-7.35312

>  <SCORE.SYSTEM.norm>
-0.291085

>  <SCORE.heavy>
24

>  <SCORE.norm>
-1.49967

$$$$
TOL.pdb
  rDOCK(R)          3D
libRbt.so/2013.1/901 2013/11/27
 25 26  0  0  0  0  0  0  0  0999 V2000
   16.4460   28.8867   62.8131 C   0  0  0  0  0  0
   16.8949   28.2351   61.7110 F   0  0  0  0  0  0
   17.0317   30.1135   62.8128 F   0  0  0  0  0  0
   15.1072   29.0787   62.6729 F   0  0  0  0  0  0
   16.7530   28.0974   64.1043 C   0  0  0  0  0  0
   17.0995   26.7214   64.1258 C   0  0  0  0  0  0
   17.1723   26.0476   62.9921 O   0  0  0  0  0  0
   16.0658   25.1841   62.7900 C   0  0  0  0  0  0
   17.3580   26.0920   65.3632 C   0  0  0  0  0  0
   17.2770   26.8089   66.5624 C   0  0  0  0  0  0
   16.9310   28.1745   66.5453 C   0  0  0  0  0  0
   16.8512   28.8874   67.7645 C   0  0  0  0  0  0
   16.5074   30.2491   67.7466 C   0  0  0  0  0  0
   16.2444   30.8962   66.5371 C   0  0  0  0  0  0
   16.3254   30.1863   65.3326 C   0  0  0  0  0  0
   16.6685   28.8215   65.3230 C   0  0  0  0  0  0
   17.1193   28.2685   69.1161 C   0  0  0  0  0  0
   15.8157   28.0072   70.1971 S   0  0  0  0  0  0
   18.3640   27.9198   69.4454 N   0  0  0  0  0  0
   19.4376   28.0540   68.4671 C   0  0  0  0  0  0
   18.6853   27.3840   70.7644 C   0  0  0  0  0  0
   19.7480   26.2748   70.6817 C   0  0  0  0  0  0
   20.9267   26.5144   70.6721 O   0  0  0  0  0  0
   19.2708   25.0263   70.6286 O   0  0  0  0  0  0
   19.6408   24.3598   71.1735 H   0  0  0  0  0  0
  1  2  1  0  0  0
  1  3  1  0  0  0
  1  4  1  0  0  0
  1  5  1  0  0  0
  5  6  2  0  0  0
  5 16  1  0  0  0
  6  7  1  0  0  0
  6  9  1  0  0  0
  7  8  1  0  0  0
  9 10  2  0  0  0
 10 11  1  0  0  0
 11 12  2  0  0  0
 11 16  1  0  0  0
 12 13  1  0  0  0
 12 17  1  0  0  0
 13 14  2  0  0  0
 14 15  1  0  0  0
 15 16  2  0  0  0
 17 18  2  0  0  0
 17 19  1  0  0  0
 19 20  1  0  0  0
 19 21  1  0  0  0
 21 22  1  0  0  0
 22 23  2  0  0  0
 22 24  1  0  0  0
 24 25  1  0  0  0
M  END
>  <CHROM.0>
5.63023735,-173.21875478,-123.73467963,168.14707489,62.55941892,-114.65097523
-102.74316067,131.41850299,-61.18859492,-61.54190337,-134.20421860,-61.41326028
-60.50081437,91.53776590

>  <CHROM.1>
-16.89423331,-104.82919618,-109.09156845,142.33876697,85.54684001,-133.64517203
17.27216103,27.90062227,66.52868729,2.17450602,1.05149311,-1.94646782

>  <FORMUL>
      TOL    C16 H14 F3 N1 O3 S1

>  <HET>
 TOL  A 320      24

>  <HETNAM>
     TOL TOLRESTAT

>  <Name>
TOL.pdb

>  <RI>
0

>  <Rbt.Current_Directory>
/home/malgorzata/Desktop/rDOCK_IFD/Wyniki/1b_aldose_reductase

>  <Rbt.Executable>
rbdock ($Id: //depot/dev/client3/rdock/2013.1/src/exe/rbdock.cxx#4 $)

>  <Rbt.Library>
libRbt.so (2013.1, Build901 2013/11/27)

>  <Rbt.Parameter_File>
/home/malgorzata/Desktop/rDock_2013.1_src/data/scripts/soft_docking.prm

>  <Rbt.Receptor>
cavity.prm

>  <SCORE>
-35.5962

>  <SCORE.INTER>
-29.1658

>  <SCORE.INTER.CONST>
1

>  <SCORE.INTER.POLAR>
-1.3567

>  <SCORE.INTER.REPUL>
0.0296405

>  <SCORE.INTER.ROT>
5

>  <SCORE.INTER.VDW>
-35.1012

>  <SCORE.INTER.norm>
-1.21524

>  <SCORE.INTRA>
-1.67493

>  <SCORE.INTRA.DIHEDRAL>
15.3833

>  <SCORE.INTRA.DIHEDRAL.0>
16.9783

>  <SCORE.INTRA.POLAR>
0

>  <SCORE.INTRA.POLAR.0>
0

>  <SCORE.INTRA.REPUL>
0

>  <SCORE.INTRA.REPUL.0>
0

>  <SCORE.INTRA.VDW>
-4.75159

>  <SCORE.INTRA.VDW.0>
4.87734

>  <SCORE.INTRA.norm>
-0.0697886

>  <SCORE.RESTR>
0

>  <SCORE.RESTR.CAVITY>
0

>  <SCORE.RESTR.norm>
0

>  <SCORE.SYSTEM>
-4.75546

>  <SCORE.SYSTEM.CONST>
0

>  <SCORE.SYSTEM.DIHEDRAL>
15.4063

>  <SCORE.SYSTEM.POLAR>
-3.08641

>  <SCORE.SYSTEM.REPUL>
1.1707

>  <SCORE.SYSTEM.VDW>
-7.81833

>  <SCORE.SYSTEM.norm>
-0.198144

>  <SCORE.heavy>
24

>  <SCORE.norm>
-1.48318

$$$$
