4PP.pdb
  rDOCK(R)          3D
libRbt.so/2013.1/901 2013/11/27
 34 36  0  0  0  0  0  0  0  0999 V2000
    7.5743    8.4864   20.8075 C   0  0  0  0  0  0
    8.1315    8.3143   19.7146 O   0  0  0  0  0  0
    6.2108    8.5829   20.8785 O   0  0  0  0  0  0
   12.6910    6.6879   27.7939 N   0  0  0  0  0  0
   13.5747    7.7270   27.4421 C   0  0  0  0  0  0
   13.2767    8.5519   26.3377 C   0  0  0  0  0  0
   12.1019    8.3382   25.5878 C   0  0  0  0  0  0
   11.2112    7.2882   25.9485 C   0  0  0  0  0  0
   11.5106    6.4708   27.0477 C   0  0  0  0  0  0
   11.8313    9.2323   24.4309 N   0  0  0  0  0  0
    8.4371    8.5788   22.0821 C   0  0  0  0  0  0
    8.7337   10.0375   22.4392 C   0  0  0  0  0  0
   10.2012   10.1171   22.8486 C   0  0  0  0  0  0
   10.3874    9.4712   24.2169 C   0  0  0  0  0  0
    1.1166    4.6033   25.3195 N   0  0  0  0  0  0
   -0.2235    6.0832   24.2067 N   0  0  0  0  0  0
    0.8851    5.8228   24.8702 C   0  0  0  0  0  0
    6.4684    6.4820   25.3938 C   0  0  0  0  0  0
    7.8278    6.2123   25.0756 C   0  0  0  0  0  0
    8.4529    6.8987   24.0025 C   0  0  0  0  0  0
    7.7255    7.8577   23.2384 C   0  0  0  0  0  0
    6.3546    8.1326   23.5529 C   0  0  0  0  0  0
    5.7220    7.4449   24.6333 C   0  0  0  0  0  0
    2.4667    9.2441   25.8329 C   0  0  0  0  0  0
    3.8363    9.0096   25.5143 C   0  0  0  0  0  0
    4.2387    7.7399   24.9895 C   0  0  0  0  0  0
    3.2664    6.7247   24.7918 C   0  0  0  0  0  0
    1.9039    6.9542   25.1048 C   0  0  0  0  0  0
    1.4995    8.2146   25.6277 C   0  0  0  0  0  0
    5.6732    7.9948   20.3854 H   0  0  0  0  0  0
   12.5377    9.6233   23.8676 H   0  0  0  0  0  0
    0.4582    3.8881   25.1637 H   0  0  0  0  0  0
   -0.8827    5.3690   24.0500 H   0  0  0  0  0  0
   -0.3924    6.9920   23.8677 H   0  0  0  0  0  0
  1  2  2  0  0  0
  1  3  1  0  0  0
  1 11  1  0  0  0
  3 30  1  0  0  0
  4  5  2  0  0  0
  4  9  1  0  0  0
  5  6  1  0  0  0
  6  7  2  0  0  0
  7  8  1  0  0  0
  7 10  1  0  0  0
  8  9  2  0  0  0
 10 14  1  0  0  0
 10 31  1  0  0  0
 11 12  1  0  0  0
 11 21  1  0  0  0
 12 13  1  0  0  0
 13 14  1  0  0  0
 15 17  2  0  0  0
 15 32  1  0  0  0
 16 17  1  0  0  0
 16 33  1  0  0  0
 16 34  1  0  0  0
 17 28  1  0  0  0
 18 19  2  0  0  0
 18 23  1  0  0  0
 19 20  1  0  0  0
 20 21  2  0  0  0
 21 22  1  0  0  0
 22 23  2  0  0  0
 23 26  1  0  0  0
 24 25  2  0  0  0
 24 29  1  0  0  0
 25 26  1  0  0  0
 26 27  2  0  0  0
 27 28  1  0  0  0
 28 29  2  0  0  0
M  END
>  <CHROM.0>
27.25027984,-60.67265851,-168.63706754,149.30866483,64.97298323,-73.76209431
123.82316248,-158.62493468,-152.76085541

>  <CHROM.1>
43.22550605,95.41294236,-147.18015167,-167.14077481,-137.43220091,129.65630352
-72.44568448,165.01020594,49.37509040,112.72125600,7.14286473,7.77632329
24.40133145,-0.00736103,-0.14820453,-1.18311824

>  <FORMUL>
      4PP    C23 H24 N4 O2

>  <HET>
 4PP  C 500      29

>  <HETNAM>
     4PP (2S)-(3'-AMIDINO-3-BIPHENYL)-5-(4-PYRIDYLAMINO)PENTANOI
   2 4PP C ACID

>  <Name>
4PP.pdb

>  <RI>
0

>  <Rbt.Current_Directory>
/home/malgorzata/Desktop/rDOCK_IFD/Wyniki/7b_factor_Xa

>  <Rbt.Executable>
rbdock ($Id: //depot/dev/client3/rdock/2013.1/src/exe/rbdock.cxx#4 $)

>  <Rbt.Library>
libRbt.so (2013.1, Build901 2013/11/27)

>  <Rbt.Parameter_File>
/home/malgorzata/Desktop/rDock_2013.1_src/data/scripts/soft_docking.prm

>  <Rbt.Receptor>
cavity.prm

>  <SCORE>
-33.8417

>  <SCORE.INTER>
-27.9217

>  <SCORE.INTER.CONST>
1

>  <SCORE.INTER.POLAR>
-1.6484

>  <SCORE.INTER.REPUL>
0.0548788

>  <SCORE.INTER.ROT>
9

>  <SCORE.INTER.VDW>
-36.9916

>  <SCORE.INTER.norm>
-0.962818

>  <SCORE.INTRA>
1.05918

>  <SCORE.INTRA.DIHEDRAL>
16.1688

>  <SCORE.INTRA.DIHEDRAL.0>
20.1331

>  <SCORE.INTRA.POLAR>
0

>  <SCORE.INTRA.POLAR.0>
0

>  <SCORE.INTRA.REPUL>
0

>  <SCORE.INTRA.REPUL.0>
0

>  <SCORE.INTRA.VDW>
-2.17457

>  <SCORE.INTRA.VDW.0>
0.0644272

>  <SCORE.INTRA.norm>
0.0365236

>  <SCORE.RESTR>
0.248955

>  <SCORE.RESTR.CAVITY>
0.248955

>  <SCORE.RESTR.norm>
0.00858466

>  <SCORE.SYSTEM>
-7.22811

>  <SCORE.SYSTEM.CONST>
0

>  <SCORE.SYSTEM.DIHEDRAL>
6.77088

>  <SCORE.SYSTEM.POLAR>
-3.38486

>  <SCORE.SYSTEM.REPUL>
0.982947

>  <SCORE.SYSTEM.VDW>
-4.01977

>  <SCORE.SYSTEM.norm>
-0.249245

>  <SCORE.heavy>
29

>  <SCORE.norm>
-1.16695

$$$$
4PP.pdb
  rDOCK(R)          3D
libRbt.so/2013.1/901 2013/11/27
 34 36  0  0  0  0  0  0  0  0999 V2000
    4.3477   10.0566   25.8256 C   0  0  0  0  0  0
    4.9259   11.0636   25.3941 O   0  0  0  0  0  0
    3.4153   10.1705   26.8211 O   0  0  0  0  0  0
    2.3473    2.4994   20.2994 N   0  0  0  0  0  0
    1.7159    3.7516   20.1654 C   0  0  0  0  0  0
    1.6565    4.6245   21.2715 C   0  0  0  0  0  0
    2.2241    4.2469   22.5059 C   0  0  0  0  0  0
    2.8626    2.9815   22.6356 C   0  0  0  0  0  0
    2.9204    2.1168   21.5332 C   0  0  0  0  0  0
    2.1349    5.1998   23.6439 N   0  0  0  0  0  0
    4.6860    8.6804   25.2179 C   0  0  0  0  0  0
    3.9761    8.4837   23.8761 C   0  0  0  0  0  0
    2.8432    7.4873   24.1017 C   0  0  0  0  0  0
    3.3172    6.0828   23.7456 C   0  0  0  0  0  0
   13.0478    7.0251   29.0773 N   0  0  0  0  0  0
   13.7380    5.9476   27.1833 N   0  0  0  0  0  0
   12.7695    6.3221   27.9951 C   0  0  0  0  0  0
    9.0321    8.3486   24.7269 C   0  0  0  0  0  0
    8.2861    9.2722   23.9444 C   0  0  0  0  0  0
    6.8807    9.3703   24.1143 C   0  0  0  0  0  0
    6.2098    8.5463   25.0649 C   0  0  0  0  0  0
    6.9558    7.6120   25.8552 C   0  0  0  0  0  0
    8.3709    7.5113   25.6884 C   0  0  0  0  0  0
    9.4037    4.3824   27.7899 C   0  0  0  0  0  0
    8.6216    5.2778   27.0033 C   0  0  0  0  0  0
    9.1921    6.5082   26.5448 C   0  0  0  0  0  0
   10.5347    6.8245   26.8800 C   0  0  0  0  0  0
   11.3163    5.9365   27.6595 C   0  0  0  0  0  0
   10.7529    4.7127   28.1183 C   0  0  0  0  0  0
    3.4136   10.9245   27.3773 H   0  0  0  0  0  0
    1.3708    5.2387   24.2634 H   0  0  0  0  0  0
   13.9803    7.2657   29.2816 H   0  0  0  0  0  0
   14.6709    6.1876   27.3863 H   0  0  0  0  0  0
   13.5285    5.4279   26.3738 H   0  0  0  0  0  0
  1  2  2  0  0  0
  1  3  1  0  0  0
  1 11  1  0  0  0
  3 30  1  0  0  0
  4  5  2  0  0  0
  4  9  1  0  0  0
  5  6  1  0  0  0
  6  7  2  0  0  0
  7  8  1  0  0  0
  7 10  1  0  0  0
  8  9  2  0  0  0
 10 14  1  0  0  0
 10 31  1  0  0  0
 11 12  1  0  0  0
 11 21  1  0  0  0
 12 13  1  0  0  0
 13 14  1  0  0  0
 15 17  2  0  0  0
 15 32  1  0  0  0
 16 17  1  0  0  0
 16 33  1  0  0  0
 16 34  1  0  0  0
 17 28  1  0  0  0
 18 19  2  0  0  0
 18 23  1  0  0  0
 19 20  1  0  0  0
 20 21  2  0  0  0
 21 22  1  0  0  0
 22 23  2  0  0  0
 23 26  1  0  0  0
 24 25  2  0  0  0
 24 29  1  0  0  0
 25 26  1  0  0  0
 26 27  2  0  0  0
 27 28  1  0  0  0
 28 29  2  0  0  0
M  END
>  <CHROM.0>
139.13685170,-60.67265851,-129.27548206,-107.63075376,-67.08950698,-97.63241664
151.51229205,-2.75533746,93.29876361

>  <CHROM.1>
-21.02039362,-78.79853504,-92.70876613,139.50346496,-106.60677709,-67.84773597
-95.01025902,-166.01885925,88.98427693,-149.69981480,6.46722546,6.63866862
25.00718816,2.82600025,0.45457699,-2.80929923

>  <FORMUL>
      4PP    C23 H24 N4 O2

>  <HET>
 4PP  C 500      29

>  <HETNAM>
     4PP (2S)-(3'-AMIDINO-3-BIPHENYL)-5-(4-PYRIDYLAMINO)PENTANOI
   2 4PP C ACID

>  <Name>
4PP.pdb

>  <RI>
0

>  <Rbt.Current_Directory>
/home/malgorzata/Desktop/rDOCK_IFD/Wyniki/7b_factor_Xa

>  <Rbt.Executable>
rbdock ($Id: //depot/dev/client3/rdock/2013.1/src/exe/rbdock.cxx#4 $)

>  <Rbt.Library>
libRbt.so (2013.1, Build901 2013/11/27)

>  <Rbt.Parameter_File>
/home/malgorzata/Desktop/rDock_2013.1_src/data/scripts/soft_docking.prm

>  <Rbt.Receptor>
cavity.prm

>  <SCORE>
-29.6287

>  <SCORE.INTER>
-29.3879

>  <SCORE.INTER.CONST>
1

>  <SCORE.INTER.POLAR>
-2.28749

>  <SCORE.INTER.REPUL>
0.0808926

>  <SCORE.INTER.ROT>
9

>  <SCORE.INTER.VDW>
-36.415

>  <SCORE.INTER.norm>
-1.01338

>  <SCORE.INTRA>
2.0025

>  <SCORE.INTRA.DIHEDRAL>
23.8474

>  <SCORE.INTRA.DIHEDRAL.0>
20.1331

>  <SCORE.INTRA.POLAR>
0

>  <SCORE.INTRA.POLAR.0>
0

>  <SCORE.INTRA.REPUL>
0

>  <SCORE.INTRA.REPUL.0>
0

>  <SCORE.INTRA.VDW>
-2.76698

>  <SCORE.INTRA.VDW.0>
0.0644272

>  <SCORE.INTRA.norm>
0.0690516

>  <SCORE.RESTR>
0.453051

>  <SCORE.RESTR.CAVITY>
0.453051

>  <SCORE.RESTR.norm>
0.0156224

>  <SCORE.SYSTEM>
-2.69634

>  <SCORE.SYSTEM.CONST>
0

>  <SCORE.SYSTEM.DIHEDRAL>
15.8579

>  <SCORE.SYSTEM.POLAR>
-2.75061

>  <SCORE.SYSTEM.REPUL>
0.657809

>  <SCORE.SYSTEM.VDW>
-4.56228

>  <SCORE.SYSTEM.norm>
-0.0929774

>  <SCORE.heavy>
29

>  <SCORE.norm>
-1.02168

$$$$
4PP.pdb
  rDOCK(R)          3D
libRbt.so/2013.1/901 2013/11/27
 34 36  0  0  0  0  0  0  0  0999 V2000
    4.2368    7.3206   20.7805 C   0  0  0  0  0  0
    5.1049    7.8639   20.0835 O   0  0  0  0  0  0
    2.9333    7.7305   20.7017 O   0  0  0  0  0  0
    9.6515    0.3505   17.3600 N   0  0  0  0  0  0
    9.6283    0.6285   18.7408 C   0  0  0  0  0  0
    8.5258    1.3103   19.2965 C   0  0  0  0  0  0
    7.4526    1.7136   18.4755 C   0  0  0  0  0  0
    7.4800    1.4287   17.0813 C   0  0  0  0  0  0
    8.5774    0.7498   16.5329 C   0  0  0  0  0  0
    6.3133    2.4314   19.1063 N   0  0  0  0  0  0
    4.6451    6.1729   21.7259 C   0  0  0  0  0  0
    5.9202    5.4838   21.2334 C   0  0  0  0  0  0
    5.5147    4.1275   20.6649 C   0  0  0  0  0  0
    6.7470    3.4065   20.1305 C   0  0  0  0  0  0
   11.2128    6.4350   28.7547 N   0  0  0  0  0  0
    9.2615    5.2511   28.6314 N   0  0  0  0  0  0
   10.0134    6.2574   28.2325 C   0  0  0  0  0  0
    5.0839    7.7349   25.8012 C   0  0  0  0  0  0
    3.7949    7.4502   25.2725 C   0  0  0  0  0  0
    3.6673    6.9441   23.9530 C   0  0  0  0  0  0
    4.8248    6.7200   23.1514 C   0  0  0  0  0  0
    6.1266    7.0067   23.6777 C   0  0  0  0  0  0
    6.2595    7.5148   25.0061 C   0  0  0  0  0  0
    9.7197    9.1942   25.6983 C   0  0  0  0  0  0
    8.4315    8.9446   25.1412 C   0  0  0  0  0  0
    7.6657    7.8220   25.5912 C   0  0  0  0  0  0
    8.1993    6.9664   26.5904 C   0  0  0  0  0  0
    9.4780    7.2122   27.1486 C   0  0  0  0  0  0
   10.2433    8.3265   26.7034 C   0  0  0  0  0  0
    2.6954    8.4267   20.1216 H   0  0  0  0  0  0
    5.3712    2.2743   18.8678 H   0  0  0  0  0  0
   11.5446    5.8184   29.4468 H   0  0  0  0  0  0
    9.5919    4.6337   29.3234 H   0  0  0  0  0  0
    8.3693    5.1168   28.2374 H   0  0  0  0  0  0
  1  2  2  0  0  0
  1  3  1  0  0  0
  1 11  1  0  0  0
  3 30  1  0  0  0
  4  5  2  0  0  0
  4  9  1  0  0  0
  5  6  1  0  0  0
  6  7  2  0  0  0
  7  8  1  0  0  0
  7 10  1  0  0  0
  8  9  2  0  0  0
 10 14  1  0  0  0
 10 31  1  0  0  0
 11 12  1  0  0  0
 11 21  1  0  0  0
 12 13  1  0  0  0
 13 14  1  0  0  0
 15 17  2  0  0  0
 15 32  1  0  0  0
 16 17  1  0  0  0
 16 33  1  0  0  0
 16 34  1  0  0  0
 17 28  1  0  0  0
 18 19  2  0  0  0
 18 23  1  0  0  0
 19 20  1  0  0  0
 20 21  2  0  0  0
 21 22  1  0  0  0
 22 23  2  0  0  0
 23 26  1  0  0  0
 24 25  2  0  0  0
 24 29  1  0  0  0
 25 26  1  0  0  0
 26 27  2  0  0  0
 27 28  1  0  0  0
 28 29  2  0  0  0
M  END
>  <CHROM.0>
-163.32535367,-60.67265851,172.24498095,85.88582360,-169.11252719,-62.58759022
15.94383497,169.92505924,-102.29022353

>  <CHROM.1>
-0.24812854,-24.68598535,40.05067740,177.44569200,-106.68378068,79.62747733
178.80920029,-155.92436770,178.43096378,-108.18363559,7.09710167,5.52160902
22.76386523,1.67011440,0.56268675,-2.19287676

>  <FORMUL>
      4PP    C23 H24 N4 O2

>  <HET>
 4PP  C 500      29

>  <HETNAM>
     4PP (2S)-(3'-AMIDINO-3-BIPHENYL)-5-(4-PYRIDYLAMINO)PENTANOI
   2 4PP C ACID

>  <Name>
4PP.pdb

>  <RI>
0

>  <Rbt.Current_Directory>
/home/malgorzata/Desktop/rDOCK_IFD/Wyniki/7b_factor_Xa

>  <Rbt.Executable>
rbdock ($Id: //depot/dev/client3/rdock/2013.1/src/exe/rbdock.cxx#4 $)

>  <Rbt.Library>
libRbt.so (2013.1, Build901 2013/11/27)

>  <Rbt.Parameter_File>
/home/malgorzata/Desktop/rDock_2013.1_src/data/scripts/soft_docking.prm

>  <Rbt.Receptor>
cavity.prm

>  <SCORE>
-34.3846

>  <SCORE.INTER>
-29.6244

>  <SCORE.INTER.CONST>
1

>  <SCORE.INTER.POLAR>
-1.93254

>  <SCORE.INTER.REPUL>
0.410626

>  <SCORE.INTER.ROT>
9

>  <SCORE.INTER.VDW>
-39.5069

>  <SCORE.INTER.norm>
-1.02153

>  <SCORE.INTRA>
-0.0501455

>  <SCORE.INTRA.DIHEDRAL>
0.463773

>  <SCORE.INTRA.DIHEDRAL.0>
20.1331

>  <SCORE.INTRA.POLAR>
0

>  <SCORE.INTRA.POLAR.0>
0

>  <SCORE.INTRA.REPUL>
0

>  <SCORE.INTRA.REPUL.0>
0

>  <SCORE.INTRA.VDW>
-0.1429

>  <SCORE.INTRA.VDW.0>
0.0644272

>  <SCORE.INTRA.norm>
-0.00172916

>  <SCORE.RESTR>
0.174116

>  <SCORE.RESTR.CAVITY>
0.174116

>  <SCORE.RESTR.norm>
0.00600402

>  <SCORE.SYSTEM>
-4.88418

>  <SCORE.SYSTEM.CONST>
0

>  <SCORE.SYSTEM.DIHEDRAL>
4.86587

>  <SCORE.SYSTEM.POLAR>
-1.93401

>  <SCORE.SYSTEM.REPUL>
0.657809

>  <SCORE.SYSTEM.VDW>
-4.03052

>  <SCORE.SYSTEM.norm>
-0.16842

>  <SCORE.heavy>
29

>  <SCORE.norm>
-1.18568

$$$$
4PP.pdb
  rDOCK(R)          3D
libRbt.so/2013.1/901 2013/11/27
 34 36  0  0  0  0  0  0  0  0999 V2000
    8.0507    7.0816   20.8152 C   0  0  0  0  0  0
    8.8803    7.4814   21.6439 O   0  0  0  0  0  0
    7.8996    7.7336   19.6213 O   0  0  0  0  0  0
    9.0434   -0.9757   17.2977 N   0  0  0  0  0  0
    8.5477    0.3257   17.0851 C   0  0  0  0  0  0
    8.3703    1.1924   18.1833 C   0  0  0  0  0  0
    8.6852    0.7598   19.4880 C   0  0  0  0  0  0
    9.1876   -0.5553   19.6973 C   0  0  0  0  0  0
    9.3635   -1.4138   18.6026 C   0  0  0  0  0  0
    8.4796    1.7084   20.6144 N   0  0  0  0  0  0
    7.2027    5.8366   21.1448 C   0  0  0  0  0  0
    7.9862    4.5507   20.8695 C   0  0  0  0  0  0
    7.0763    3.6256   20.0674 C   0  0  0  0  0  0
    7.0968    2.2294   20.6794 C   0  0  0  0  0  0
    8.0145    2.7937   29.1672 N   0  0  0  0  0  0
    9.5913    3.8325   30.4553 N   0  0  0  0  0  0
    8.8693    3.7823   29.3537 C   0  0  0  0  0  0
    5.8129    6.0290   25.3007 C   0  0  0  0  0  0
    4.8805    6.0361   24.2270 C   0  0  0  0  0  0
    5.3436    5.9721   22.8873 C   0  0  0  0  0  0
    6.7403    5.9023   22.6095 C   0  0  0  0  0  0
    7.6851    5.8967   23.6870 C   0  0  0  0  0  0
    7.2230    5.9595   25.0372 C   0  0  0  0  0  0
   10.1924    6.8788   27.4057 C   0  0  0  0  0  0
    9.2779    6.9235   26.3131 C   0  0  0  0  0  0
    8.2367    5.9459   26.2145 C   0  0  0  0  0  0
    8.1262    4.9390   27.2090 C   0  0  0  0  0  0
    9.0313    4.8922   28.2978 C   0  0  0  0  0  0
   10.0686    5.8614   28.3993 C   0  0  0  0  0  0
    8.2197    8.6086   19.5216 H   0  0  0  0  0  0
    9.1881    1.9626   21.2490 H   0  0  0  0  0  0
    7.9194    2.0899   29.8489 H   0  0  0  0  0  0
    9.4973    3.1294   31.1379 H   0  0  0  0  0  0
   10.2247    4.5730   30.5954 H   0  0  0  0  0  0
  1  2  2  0  0  0
  1  3  1  0  0  0
  1 11  1  0  0  0
  3 30  1  0  0  0
  4  5  2  0  0  0
  4  9  1  0  0  0
  5  6  1  0  0  0
  6  7  2  0  0  0
  7  8  1  0  0  0
  7 10  1  0  0  0
  8  9  2  0  0  0
 10 14  1  0  0  0
 10 31  1  0  0  0
 11 12  1  0  0  0
 11 21  1  0  0  0
 12 13  1  0  0  0
 13 14  1  0  0  0
 15 17  2  0  0  0
 15 32  1  0  0  0
 16 17  1  0  0  0
 16 33  1  0  0  0
 16 34  1  0  0  0
 17 28  1  0  0  0
 18 19  2  0  0  0
 18 23  1  0  0  0
 19 20  1  0  0  0
 20 21  2  0  0  0
 21 22  1  0  0  0
 22 23  2  0  0  0
 23 26  1  0  0  0
 24 25  2  0  0  0
 24 29  1  0  0  0
 25 26  1  0  0  0
 26 27  2  0  0  0
 27 28  1  0  0  0
 28 29  2  0  0  0
M  END
>  <CHROM.0>
71.83644731,-60.67265851,-11.14658593,50.56782787,82.13878450,-75.27107013
83.53049684,-132.21265170,96.56925709

>  <CHROM.1>
-18.20419310,-81.15437176,55.48677743,-100.48327436,-132.17600718,117.36393384
-132.18768249,-61.38606964,8.40810706,-123.44742142,8.11940968,4.18891305
23.15564857,1.63699277,1.28235737,-2.05265328

>  <FORMUL>
      4PP    C23 H24 N4 O2

>  <HET>
 4PP  C 500      29

>  <HETNAM>
     4PP (2S)-(3'-AMIDINO-3-BIPHENYL)-5-(4-PYRIDYLAMINO)PENTANOI
   2 4PP C ACID

>  <Name>
4PP.pdb

>  <RI>
0

>  <Rbt.Current_Directory>
/home/malgorzata/Desktop/rDOCK_IFD/Wyniki/7b_factor_Xa

>  <Rbt.Executable>
rbdock ($Id: //depot/dev/client3/rdock/2013.1/src/exe/rbdock.cxx#4 $)

>  <Rbt.Library>
libRbt.so (2013.1, Build901 2013/11/27)

>  <Rbt.Parameter_File>
/home/malgorzata/Desktop/rDock_2013.1_src/data/scripts/soft_docking.prm

>  <Rbt.Receptor>
cavity.prm

>  <SCORE>
-31.6302

>  <SCORE.INTER>
-25.6246

>  <SCORE.INTER.CONST>
1

>  <SCORE.INTER.POLAR>
-0.403454

>  <SCORE.INTER.REPUL>
0

>  <SCORE.INTER.ROT>
9

>  <SCORE.INTER.VDW>
-38.6528

>  <SCORE.INTER.norm>
-0.883606

>  <SCORE.INTRA>
-0.166674

>  <SCORE.INTRA.DIHEDRAL>
9.65192

>  <SCORE.INTRA.DIHEDRAL.0>
20.1331

>  <SCORE.INTRA.POLAR>
0

>  <SCORE.INTRA.POLAR.0>
0

>  <SCORE.INTRA.REPUL>
0

>  <SCORE.INTRA.REPUL.0>
0

>  <SCORE.INTRA.VDW>
-2.09706

>  <SCORE.INTRA.VDW.0>
0.0644272

>  <SCORE.INTRA.norm>
-0.0057474

>  <SCORE.RESTR>
0.00599143

>  <SCORE.RESTR.CAVITY>
0.00599143

>  <SCORE.RESTR.norm>
0.000206601

>  <SCORE.SYSTEM>
-5.84498

>  <SCORE.SYSTEM.CONST>
0

>  <SCORE.SYSTEM.DIHEDRAL>
7.64635

>  <SCORE.SYSTEM.POLAR>
-3.15255

>  <SCORE.SYSTEM.REPUL>
1.08685

>  <SCORE.SYSTEM.VDW>
-4.38375

>  <SCORE.SYSTEM.norm>
-0.201551

>  <SCORE.heavy>
29

>  <SCORE.norm>
-1.0907

$$$$
4PP.pdb
  rDOCK(R)          3D
libRbt.so/2013.1/901 2013/11/27
 34 36  0  0  0  0  0  0  0  0999 V2000
   10.2054    9.6225   22.4962 C   0  0  0  0  0  0
    9.7732   10.5573   23.1848 O   0  0  0  0  0  0
   11.4708    9.1429   22.7014 O   0  0  0  0  0  0
    8.7340    0.5323   19.8993 N   0  0  0  0  0  0
    9.0057    1.2303   18.7062 C   0  0  0  0  0  0
    8.8376    2.6298   18.6633 C   0  0  0  0  0  0
    8.3985    3.3281   19.8070 C   0  0  0  0  0  0
    8.1272    2.6185   21.0106 C   0  0  0  0  0  0
    8.2964    1.2271   21.0494 C   0  0  0  0  0  0
    8.2341    4.8029   19.7129 N   0  0  0  0  0  0
    9.2947    9.0038   21.4167 C   0  0  0  0  0  0
    9.3569    7.4748   21.4570 C   0  0  0  0  0  0
    8.0573    6.9499   20.8545 C   0  0  0  0  0  0
    7.9871    5.4367   21.0263 C   0  0  0  0  0  0
    0.4650    9.0496   23.8931 N   0  0  0  0  0  0
    0.4687    9.5884   26.1144 N   0  0  0  0  0  0
    1.1138    9.1988   25.0331 C   0  0  0  0  0  0
    5.1930   10.4796   21.9048 C   0  0  0  0  0  0
    5.9838   10.8985   20.7997 C   0  0  0  0  0  0
    7.3089   10.4123   20.6531 C   0  0  0  0  0  0
    7.8546    9.5062   21.6090 C   0  0  0  0  0  0
    7.0633    9.0817   22.7260 C   0  0  0  0  0  0
    5.7285    9.5675   22.8764 C   0  0  0  0  0  0
    4.6085    8.0517   26.2999 C   0  0  0  0  0  0
    5.4385    8.4622   25.2161 C   0  0  0  0  0  0
    4.8577    9.1085   24.0785 C   0  0  0  0  0  0
    3.4566    9.3339   24.0417 C   0  0  0  0  0  0
    2.6283    8.9299   25.1175 C   0  0  0  0  0  0
    3.2014    8.2860   26.2501 C   0  0  0  0  0  0
   11.9480    9.3927   23.4681 H   0  0  0  0  0  0
    8.2843    5.3039   18.8669 H   0  0  0  0  0  0
   -0.5029    9.2244   23.8511 H   0  0  0  0  0  0
   -0.4992    9.7636   26.0739 H   0  0  0  0  0  0
    0.9547    9.7042   26.9627 H   0  0  0  0  0  0
  1  2  2  0  0  0
  1  3  1  0  0  0
  1 11  1  0  0  0
  3 30  1  0  0  0
  4  5  2  0  0  0
  4  9  1  0  0  0
  5  6  1  0  0  0
  6  7  2  0  0  0
  7  8  1  0  0  0
  7 10  1  0  0  0
  8  9  2  0  0  0
 10 14  1  0  0  0
 10 31  1  0  0  0
 11 12  1  0  0  0
 11 21  1  0  0  0
 12 13  1  0  0  0
 13 14  1  0  0  0
 15 17  2  0  0  0
 15 32  1  0  0  0
 16 17  1  0  0  0
 16 33  1  0  0  0
 16 34  1  0  0  0
 17 28  1  0  0  0
 18 19  2  0  0  0
 18 23  1  0  0  0
 19 20  1  0  0  0
 20 21  2  0  0  0
 21 22  1  0  0  0
 22 23  2  0  0  0
 23 26  1  0  0  0
 24 25  2  0  0  0
 24 29  1  0  0  0
 25 26  1  0  0  0
 26 27  2  0  0  0
 27 28  1  0  0  0
 28 29  2  0  0  0
M  END
>  <CHROM.0>
-18.48019818,-60.67265851,-137.46960318,148.29522953,-176.63046929,-63.01736703
156.64679392,-15.37116302,163.86544107

>  <CHROM.1>
12.58830619,-135.21069023,-170.57250698,171.02342107,155.48399660,109.75757106
-172.98760240,-106.19882991,39.20829397,-165.31004947,6.62704011,7.41147567
22.37260527,-0.83352652,0.41767767,0.29841440

>  <FORMUL>
      4PP    C23 H24 N4 O2

>  <HET>
 4PP  C 500      29

>  <HETNAM>
     4PP (2S)-(3'-AMIDINO-3-BIPHENYL)-5-(4-PYRIDYLAMINO)PENTANOI
   2 4PP C ACID

>  <Name>
4PP.pdb

>  <RI>
0

>  <Rbt.Current_Directory>
/home/malgorzata/Desktop/rDOCK_IFD/Wyniki/7b_factor_Xa

>  <Rbt.Executable>
rbdock ($Id: //depot/dev/client3/rdock/2013.1/src/exe/rbdock.cxx#4 $)

>  <Rbt.Library>
libRbt.so (2013.1, Build901 2013/11/27)

>  <Rbt.Parameter_File>
/home/malgorzata/Desktop/rDock_2013.1_src/data/scripts/soft_docking.prm

>  <Rbt.Receptor>
cavity.prm

>  <SCORE>
-21.2809

>  <SCORE.INTER>
-18.033

>  <SCORE.INTER.CONST>
1

>  <SCORE.INTER.POLAR>
-1.00162

>  <SCORE.INTER.REPUL>
0

>  <SCORE.INTER.ROT>
9

>  <SCORE.INTER.VDW>
-29.0275

>  <SCORE.INTER.norm>
-0.621829

>  <SCORE.INTRA>
2.01162

>  <SCORE.INTRA.DIHEDRAL>
-2.14319

>  <SCORE.INTRA.DIHEDRAL.0>
20.1331

>  <SCORE.INTRA.POLAR>
0

>  <SCORE.INTRA.POLAR.0>
0

>  <SCORE.INTRA.REPUL>
0

>  <SCORE.INTRA.REPUL.0>
0

>  <SCORE.INTRA.VDW>
2.44026

>  <SCORE.INTRA.VDW.0>
0.0644272

>  <SCORE.INTRA.norm>
0.0693662

>  <SCORE.RESTR>
0.0677099

>  <SCORE.RESTR.CAVITY>
0.0677099

>  <SCORE.RESTR.norm>
0.00233482

>  <SCORE.SYSTEM>
-5.32718

>  <SCORE.SYSTEM.CONST>
0

>  <SCORE.SYSTEM.DIHEDRAL>
7.82896

>  <SCORE.SYSTEM.POLAR>
-2.6981

>  <SCORE.SYSTEM.REPUL>
0.657809

>  <SCORE.SYSTEM.VDW>
-3.35715

>  <SCORE.SYSTEM.norm>
-0.183696

>  <SCORE.heavy>
29

>  <SCORE.norm>
-0.733824

$$$$
4PP.pdb
  rDOCK(R)          3D
libRbt.so/2013.1/901 2013/11/27
 34 36  0  0  0  0  0  0  0  0999 V2000
    4.0226    3.0758   21.4735 C   0  0  0  0  0  0
    3.2849    2.1621   21.8681 O   0  0  0  0  0  0
    3.6510    3.8503   20.4080 O   0  0  0  0  0  0
    9.5055   -0.9681   17.7309 N   0  0  0  0  0  0
    8.1871   -1.3671   17.4359 C   0  0  0  0  0  0
    7.1464   -0.4160   17.4702 C   0  0  0  0  0  0
    7.4221    0.9272   17.7992 C   0  0  0  0  0  0
    8.7561    1.3258   18.0946 C   0  0  0  0  0  0
    9.7882    0.3772   18.0585 C   0  0  0  0  0  0
    6.2920    1.8933   17.8243 N   0  0  0  0  0  0
    5.3550    3.3321   22.2061 C   0  0  0  0  0  0
    6.4918    3.5717   21.2092 C   0  0  0  0  0  0
    6.4577    2.4312   20.1965 C   0  0  0  0  0  0
    6.5053    2.9996   18.7827 C   0  0  0  0  0  0
    9.4240   10.4950   23.4072 N   0  0  0  0  0  0
   11.3558    9.4193   23.9862 N   0  0  0  0  0  0
   10.0476    9.5477   24.0828 C   0  0  0  0  0  0
    4.8245    6.7315   24.9267 C   0  0  0  0  0  0
    3.6959    6.0784   24.3596 C   0  0  0  0  0  0
    3.8817    4.9790   23.4819 C   0  0  0  0  0  0
    5.1949    4.5248   23.1627 C   0  0  0  0  0  0
    6.3365    5.1801   23.7296 C   0  0  0  0  0  0
    6.1537    6.2862   24.6147 C   0  0  0  0  0  0
    8.8999    7.4401   27.1445 C   0  0  0  0  0  0
    7.7680    6.7653   26.6009 C   0  0  0  0  0  0
    7.3829    6.9999   25.2422 C   0  0  0  0  0  0
    8.1346    7.9055   24.4485 C   0  0  0  0  0  0
    9.2616    8.5765   24.9839 C   0  0  0  0  0  0
    9.6475    8.3470   26.3345 C   0  0  0  0  0  0
    3.0507    3.5147   19.7716 H   0  0  0  0  0  0
    5.4879    1.8059   17.2631 H   0  0  0  0  0  0
    9.9367   11.1100   22.8343 H   0  0  0  0  0  0
   11.8698   10.0335   23.4137 H   0  0  0  0  0  0
   11.8190    8.7091   24.4866 H   0  0  0  0  0  0
  1  2  2  0  0  0
  1  3  1  0  0  0
  1 11  1  0  0  0
  3 30  1  0  0  0
  4  5  2  0  0  0
  4  9  1  0  0  0
  5  6  1  0  0  0
  6  7  2  0  0  0
  7  8  1  0  0  0
  7 10  1  0  0  0
  8  9  2  0  0  0
 10 14  1  0  0  0
 10 31  1  0  0  0
 11 12  1  0  0  0
 11 21  1  0  0  0
 12 13  1  0  0  0
 13 14  1  0  0  0
 15 17  2  0  0  0
 15 32  1  0  0  0
 16 17  1  0  0  0
 16 33  1  0  0  0
 16 34  1  0  0  0
 17 28  1  0  0  0
 18 19  2  0  0  0
 18 23  1  0  0  0
 19 20  1  0  0  0
 20 21  2  0  0  0
 21 22  1  0  0  0
 22 23  2  0  0  0
 23 26  1  0  0  0
 24 25  2  0  0  0
 24 29  1  0  0  0
 25 26  1  0  0  0
 26 27  2  0  0  0
 27 28  1  0  0  0
 28 29  2  0  0  0
M  END
>  <CHROM.0>
-125.92063941,-60.67265851,-9.93814518,68.59096518,-171.47723446,-73.21624708
-141.17170014,-110.01556549,49.97393833

>  <CHROM.1>
-24.42105026,136.39868102,150.74529232,-68.12130804,-50.56254481,14.81688201
130.61101924,-172.64333655,50.74033969,76.86071320,7.04376252,4.54968068
22.03663486,1.69652480,-0.27341107,-2.37552271

>  <FORMUL>
      4PP    C23 H24 N4 O2

>  <HET>
 4PP  C 500      29

>  <HETNAM>
     4PP (2S)-(3'-AMIDINO-3-BIPHENYL)-5-(4-PYRIDYLAMINO)PENTANOI
   2 4PP C ACID

>  <Name>
4PP.pdb

>  <RI>
0

>  <Rbt.Current_Directory>
/home/malgorzata/Desktop/rDOCK_IFD/Wyniki/7b_factor_Xa

>  <Rbt.Executable>
rbdock ($Id: //depot/dev/client3/rdock/2013.1/src/exe/rbdock.cxx#4 $)

>  <Rbt.Library>
libRbt.so (2013.1, Build901 2013/11/27)

>  <Rbt.Parameter_File>
/home/malgorzata/Desktop/rDock_2013.1_src/data/scripts/soft_docking.prm

>  <Rbt.Receptor>
cavity.prm

>  <SCORE>
-32.3734

>  <SCORE.INTER>
-29.5201

>  <SCORE.INTER.CONST>
1

>  <SCORE.INTER.POLAR>
-0.981368

>  <SCORE.INTER.REPUL>
0

>  <SCORE.INTER.ROT>
9

>  <SCORE.INTER.VDW>
-40.5834

>  <SCORE.INTER.norm>
-1.01793

>  <SCORE.INTRA>
1.65319

>  <SCORE.INTRA.DIHEDRAL>
9.47977

>  <SCORE.INTRA.DIHEDRAL.0>
20.1331

>  <SCORE.INTRA.POLAR>
0

>  <SCORE.INTRA.POLAR.0>
0

>  <SCORE.INTRA.REPUL>
0

>  <SCORE.INTRA.REPUL.0>
0

>  <SCORE.INTRA.VDW>
-0.242769

>  <SCORE.INTRA.VDW.0>
0.0644272

>  <SCORE.INTRA.norm>
0.0570064

>  <SCORE.RESTR>
0.102517

>  <SCORE.RESTR.CAVITY>
0.102517

>  <SCORE.RESTR.norm>
0.00353506

>  <SCORE.SYSTEM>
-4.60898

>  <SCORE.SYSTEM.CONST>
0

>  <SCORE.SYSTEM.DIHEDRAL>
7.09192

>  <SCORE.SYSTEM.POLAR>
-2.62273

>  <SCORE.SYSTEM.REPUL>
0.98094

>  <SCORE.SYSTEM.VDW>
-4.14235

>  <SCORE.SYSTEM.norm>
-0.15893

>  <SCORE.heavy>
29

>  <SCORE.norm>
-1.11632

$$$$
4PP.pdb
  rDOCK(R)          3D
libRbt.so/2013.1/901 2013/11/27
 34 36  0  0  0  0  0  0  0  0999 V2000
    4.4344    3.8283   21.3839 C   0  0  0  0  0  0
    4.9493    4.4788   20.4639 O   0  0  0  0  0  0
    3.5074    2.8597   21.1085 O   0  0  0  0  0  0
    7.1609    0.7422   16.4569 N   0  0  0  0  0  0
    6.1588    0.8468   17.4414 C   0  0  0  0  0  0
    6.5145    1.1716   18.7668 C   0  0  0  0  0  0
    7.8656    1.3893   19.1068 C   0  0  0  0  0  0
    8.8742    1.2844   18.1081 C   0  0  0  0  0  0
    8.5163    0.9621   16.7912 C   0  0  0  0  0  0
    8.1921    1.7274   20.5175 N   0  0  0  0  0  0
    4.8609    4.1190   22.8369 C   0  0  0  0  0  0
    6.1341    3.3502   23.1991 C   0  0  0  0  0  0
    7.0103    3.3061   21.9510 C   0  0  0  0  0  0
    6.9877    1.9017   21.3583 C   0  0  0  0  0  0
   10.7322    7.3213   28.3608 N   0  0  0  0  0  0
    8.6598    6.3634   28.4714 N   0  0  0  0  0  0
    9.5103    7.1794   27.8815 C   0  0  0  0  0  0
    5.3524    8.4501   23.3269 C   0  0  0  0  0  0
    4.2485    7.9270   22.5990 C   0  0  0  0  0  0
    4.1008    6.5237   22.4491 C   0  0  0  0  0  0
    5.0543    5.6327   23.0232 C   0  0  0  0  0  0
    6.1701    6.1537   23.7564 C   0  0  0  0  0  0
    6.3216    7.5656   23.9108 C   0  0  0  0  0  0
    9.2855    9.8419   25.0542 C   0  0  0  0  0  0
    8.1849    9.3429   24.2980 C   0  0  0  0  0  0
    7.5224    8.1427   24.7103 C   0  0  0  0  0  0
    7.9705    7.4599   25.8714 C   0  0  0  0  0  0
    9.0623    7.9535   26.6273 C   0  0  0  0  0  0
    9.7245    9.1458   26.2204 C   0  0  0  0  0  0
    3.0734    2.4138   21.8090 H   0  0  0  0  0  0
    9.1116    1.8248   20.8557 H   0  0  0  0  0  0
   11.0074    6.8214   29.1630 H   0  0  0  0  0  0
    8.9337    5.8628   29.2737 H   0  0  0  0  0  0
    7.7506    6.2546   28.1098 H   0  0  0  0  0  0
  1  2  2  0  0  0
  1  3  1  0  0  0
  1 11  1  0  0  0
  3 30  1  0  0  0
  4  5  2  0  0  0
  4  9  1  0  0  0
  5  6  1  0  0  0
  6  7  2  0  0  0
  7  8  1  0  0  0
  7 10  1  0  0  0
  8  9  2  0  0  0
 10 14  1  0  0  0
 10 31  1  0  0  0
 11 12  1  0  0  0
 11 21  1  0  0  0
 12 13  1  0  0  0
 13 14  1  0  0  0
 15 17  2  0  0  0
 15 32  1  0  0  0
 16 17  1  0  0  0
 16 33  1  0  0  0
 16 34  1  0  0  0
 17 28  1  0  0  0
 18 19  2  0  0  0
 18 23  1  0  0  0
 19 20  1  0  0  0
 20 21  2  0  0  0
 21 22  1  0  0  0
 22 23  2  0  0  0
 23 26  1  0  0  0
 24 25  2  0  0  0
 24 29  1  0  0  0
 25 26  1  0  0  0
 26 27  2  0  0  0
 27 28  1  0  0  0
 28 29  2  0  0  0
M  END
>  <CHROM.0>
98.43079231,-60.67265851,-164.37832225,150.98274263,-66.15171704,-70.64953267
-45.92299397,-7.51516387,-53.39667215

>  <CHROM.1>
-175.47077623,-84.34203498,-5.01023499,-121.63866580,35.59262260,42.56123451
-106.67811930,-158.22842934,157.95266413,-37.89963035,6.98524964,4.99705077
22.61944817,1.75768988,0.36971714,-2.34280245

>  <FORMUL>
      4PP    C23 H24 N4 O2

>  <HET>
 4PP  C 500      29

>  <HETNAM>
     4PP (2S)-(3'-AMIDINO-3-BIPHENYL)-5-(4-PYRIDYLAMINO)PENTANOI
   2 4PP C ACID

>  <Name>
4PP.pdb

>  <RI>
0

>  <Rbt.Current_Directory>
/home/malgorzata/Desktop/rDOCK_IFD/Wyniki/7b_factor_Xa

>  <Rbt.Executable>
rbdock ($Id: //depot/dev/client3/rdock/2013.1/src/exe/rbdock.cxx#4 $)

>  <Rbt.Library>
libRbt.so (2013.1, Build901 2013/11/27)

>  <Rbt.Parameter_File>
/home/malgorzata/Desktop/rDock_2013.1_src/data/scripts/soft_docking.prm

>  <Rbt.Receptor>
cavity.prm

>  <SCORE>
-30.393

>  <SCORE.INTER>
-29.6968

>  <SCORE.INTER.CONST>
1

>  <SCORE.INTER.POLAR>
-2.1397

>  <SCORE.INTER.REPUL>
0

>  <SCORE.INTER.ROT>
9

>  <SCORE.INTER.VDW>
-36.8218

>  <SCORE.INTER.norm>
-1.02403

>  <SCORE.INTRA>
3.26963

>  <SCORE.INTRA.DIHEDRAL>
-2.51446

>  <SCORE.INTRA.DIHEDRAL.0>
20.1331

>  <SCORE.INTRA.POLAR>
0

>  <SCORE.INTRA.POLAR.0>
0

>  <SCORE.INTRA.REPUL>
0

>  <SCORE.INTRA.REPUL.0>
0

>  <SCORE.INTRA.VDW>
3.77252

>  <SCORE.INTRA.VDW.0>
0.0644272

>  <SCORE.INTRA.norm>
0.112746

>  <SCORE.RESTR>
0

>  <SCORE.RESTR.CAVITY>
0

>  <SCORE.RESTR.norm>
0

>  <SCORE.SYSTEM>
-3.96576

>  <SCORE.SYSTEM.CONST>
0

>  <SCORE.SYSTEM.DIHEDRAL>
5.82443

>  <SCORE.SYSTEM.POLAR>
-1.87968

>  <SCORE.SYSTEM.REPUL>
0.657809

>  <SCORE.SYSTEM.VDW>
-3.77611

>  <SCORE.SYSTEM.norm>
-0.13675

>  <SCORE.heavy>
29

>  <SCORE.norm>
-1.04803

$$$$
4PP.pdb
  rDOCK(R)          3D
libRbt.so/2013.1/901 2013/11/27
 34 36  0  0  0  0  0  0  0  0999 V2000
    4.5002    8.3577   22.8819 C   0  0  0  0  0  0
    3.2848    8.2673   22.6600 O   0  0  0  0  0  0
    5.4051    7.9857   21.9248 O   0  0  0  0  0  0
   -1.1751    5.5120   24.0008 N   0  0  0  0  0  0
    0.0923    4.9439   24.2362 C   0  0  0  0  0  0
    1.0121    5.6123   25.0704 C   0  0  0  0  0  0
    0.6674    6.8435   25.6651 C   0  0  0  0  0  0
   -0.6151    7.4125   25.4257 C   0  0  0  0  0  0
   -1.5272    6.7443   24.5964 C   0  0  0  0  0  0
    1.6709    7.5118   26.5353 N   0  0  0  0  0  0
    4.9746    8.9038   24.2436 C   0  0  0  0  0  0
    4.4502    8.0404   25.3937 C   0  0  0  0  0  0
    3.6288    8.9464   26.3058 C   0  0  0  0  0  0
    2.1475    8.7964   25.9781 C   0  0  0  0  0  0
   13.9281    7.4904   26.1825 N   0  0  0  0  0  0
   13.9224    7.5945   28.4659 N   0  0  0  0  0  0
   13.2728    7.4519   27.3279 C   0  0  0  0  0  0
    9.3536    9.1580   24.2310 C   0  0  0  0  0  0
    8.5898    9.8162   23.2283 C   0  0  0  0  0  0
    7.1737    9.7268   23.2449 C   0  0  0  0  0  0
    6.5100    8.9788   24.2611 C   0  0  0  0  0  0
    7.2743    8.3115   25.2733 C   0  0  0  0  0  0
    8.6999    8.4002   25.2611 C   0  0  0  0  0  0
    9.7229    6.2282   28.3447 C   0  0  0  0  0  0
    8.9216    6.8638   27.3517 C   0  0  0  0  0  0
    9.5394    7.6881   26.3575 C   0  0  0  0  0  0
   10.9478    7.8645   26.3717 C   0  0  0  0  0  0
   11.7482    7.2328   27.3552 C   0  0  0  0  0  0
   11.1382    6.4132   28.3461 C   0  0  0  0  0  0
    5.1114    7.7648   21.0629 H   0  0  0  0  0  0
    1.9846    7.1391   27.3909 H   0  0  0  0  0  0
   14.9025    7.6310   26.1774 H   0  0  0  0  0  0
   14.8968    7.7351   28.4622 H   0  0  0  0  0  0
   13.4332    7.5604   29.3196 H   0  0  0  0  0  0
  1  2  2  0  0  0
  1  3  1  0  0  0
  1 11  1  0  0  0
  3 30  1  0  0  0
  4  5  2  0  0  0
  4  9  1  0  0  0
  5  6  1  0  0  0
  6  7  2  0  0  0
  7  8  1  0  0  0
  7 10  1  0  0  0
  8  9  2  0  0  0
 10 14  1  0  0  0
 10 31  1  0  0  0
 11 12  1  0  0  0
 11 21  1  0  0  0
 12 13  1  0  0  0
 13 14  1  0  0  0
 15 17  2  0  0  0
 15 32  1  0  0  0
 16 17  1  0  0  0
 16 33  1  0  0  0
 16 34  1  0  0  0
 17 28  1  0  0  0
 18 19  2  0  0  0
 18 23  1  0  0  0
 19 20  1  0  0  0
 20 21  2  0  0  0
 21 22  1  0  0  0
 22 23  2  0  0  0
 23 26  1  0  0  0
 24 25  2  0  0  0
 24 29  1  0  0  0
 25 26  1  0  0  0
 26 27  2  0  0  0
 27 28  1  0  0  0
 28 29  2  0  0  0
M  END
>  <CHROM.0>
172.40974872,-60.67265851,159.11888615,-54.39825420,137.27322197,-67.52105832
-29.36927068,-164.06296620,141.02152774

>  <CHROM.1>
7.73535659,59.28354743,114.52926403,-143.50320954,-121.50611445,55.98437513
98.08928718,75.48355301,-39.37317348,-176.39472006,6.16091263,7.69539056
25.37324440,-2.99768158,0.15027225,2.09309283

>  <FORMUL>
      4PP    C23 H24 N4 O2

>  <HET>
 4PP  C 500      29

>  <HETNAM>
     4PP (2S)-(3'-AMIDINO-3-BIPHENYL)-5-(4-PYRIDYLAMINO)PENTANOI
   2 4PP C ACID

>  <Name>
4PP.pdb

>  <RI>
0

>  <Rbt.Current_Directory>
/home/malgorzata/Desktop/rDOCK_IFD/Wyniki/7b_factor_Xa

>  <Rbt.Executable>
rbdock ($Id: //depot/dev/client3/rdock/2013.1/src/exe/rbdock.cxx#4 $)

>  <Rbt.Library>
libRbt.so (2013.1, Build901 2013/11/27)

>  <Rbt.Parameter_File>
/home/malgorzata/Desktop/rDock_2013.1_src/data/scripts/soft_docking.prm

>  <Rbt.Receptor>
cavity.prm

>  <SCORE>
-38.6494

>  <SCORE.INTER>
-34.3826

>  <SCORE.INTER.CONST>
1

>  <SCORE.INTER.POLAR>
-1.29875

>  <SCORE.INTER.REPUL>
0.00241297

>  <SCORE.INTER.ROT>
9

>  <SCORE.INTER.VDW>
-44.3789

>  <SCORE.INTER.norm>
-1.18561

>  <SCORE.INTRA>
1.31676

>  <SCORE.INTRA.DIHEDRAL>
11.8875

>  <SCORE.INTRA.DIHEDRAL.0>
20.1331

>  <SCORE.INTRA.POLAR>
0

>  <SCORE.INTRA.POLAR.0>
0

>  <SCORE.INTRA.REPUL>
0

>  <SCORE.INTRA.REPUL.0>
0

>  <SCORE.INTRA.VDW>
-1.06073

>  <SCORE.INTRA.VDW.0>
0.0644272

>  <SCORE.INTRA.norm>
0.0454057

>  <SCORE.RESTR>
0

>  <SCORE.RESTR.CAVITY>
0

>  <SCORE.RESTR.norm>
0

>  <SCORE.SYSTEM>
-5.58355

>  <SCORE.SYSTEM.CONST>
0

>  <SCORE.SYSTEM.DIHEDRAL>
8.38577

>  <SCORE.SYSTEM.POLAR>
-2.56657

>  <SCORE.SYSTEM.REPUL>
0.657809

>  <SCORE.SYSTEM.VDW>
-4.33913

>  <SCORE.SYSTEM.norm>
-0.192536

>  <SCORE.heavy>
29

>  <SCORE.norm>
-1.33274

$$$$
4PP.pdb
  rDOCK(R)          3D
libRbt.so/2013.1/901 2013/11/27
 34 36  0  0  0  0  0  0  0  0999 V2000
    4.0596    6.5610   21.9846 C   0  0  0  0  0  0
    2.9833    6.8182   22.5416 O   0  0  0  0  0  0
    4.2084    6.7738   20.6408 O   0  0  0  0  0  0
    9.8605    0.7748   17.4840 N   0  0  0  0  0  0
   10.0639    0.7455   18.8776 C   0  0  0  0  0  0
    9.0550    1.2225   19.7398 C   0  0  0  0  0  0
    7.8492    1.7278   19.2114 C   0  0  0  0  0  0
    7.6477    1.7534   17.8027 C   0  0  0  0  0  0
    8.6530    1.2774   16.9488 C   0  0  0  0  0  0
    6.8157    2.2213   20.1597 N   0  0  0  0  0  0
    5.2268    6.0101   22.8283 C   0  0  0  0  0  0
    6.3631    5.5105   21.9324 C   0  0  0  0  0  0
    6.0373    4.0720   21.5427 C   0  0  0  0  0  0
    6.8079    3.6953   20.2824 C   0  0  0  0  0  0
   13.3188    6.9490   26.5233 N   0  0  0  0  0  0
   11.5560    6.8088   27.9715 N   0  0  0  0  0  0
   12.0850    7.2775   26.8590 C   0  0  0  0  0  0
    6.5639    9.1284   25.6083 C   0  0  0  0  0  0
    5.1815    8.8213   25.4792 C   0  0  0  0  0  0
    4.7627    7.8093   24.5770 C   0  0  0  0  0  0
    5.7201    7.0979   23.7962 C   0  0  0  0  0  0
    7.1147    7.4040   23.9202 C   0  0  0  0  0  0
    7.5406    8.4210   24.8284 C   0  0  0  0  0  0
   11.0245   10.1537   24.4641 C   0  0  0  0  0  0
    9.6349    9.8774   24.3062 C   0  0  0  0  0  0
    9.0502    8.7566   24.9781 C   0  0  0  0  0  0
    9.8633    7.9296   25.7965 C   0  0  0  0  0  0
   11.2441    8.2019   25.9582 C   0  0  0  0  0  0
   11.8299    9.3145   25.2913 C   0  0  0  0  0  0
    4.9541    7.2421   20.3203 H   0  0  0  0  0  0
    6.2023    1.6301   20.6532 H   0  0  0  0  0  0
   13.8468    6.3574   27.1068 H   0  0  0  0  0  0
   12.0828    6.2171   28.5560 H   0  0  0  0  0  0
   10.6340    7.0505   28.2181 H   0  0  0  0  0  0
  1  2  2  0  0  0
  1  3  1  0  0  0
  1 11  1  0  0  0
  3 30  1  0  0  0
  4  5  2  0  0  0
  4  9  1  0  0  0
  5  6  1  0  0  0
  6  7  2  0  0  0
  7  8  1  0  0  0
  7 10  1  0  0  0
  8  9  2  0  0  0
 10 14  1  0  0  0
 10 31  1  0  0  0
 11 12  1  0  0  0
 11 21  1  0  0  0
 12 13  1  0  0  0
 13 14  1  0  0  0
 15 17  2  0  0  0
 15 32  1  0  0  0
 16 17  1  0  0  0
 16 33  1  0  0  0
 16 34  1  0  0  0
 17 28  1  0  0  0
 18 19  2  0  0  0
 18 23  1  0  0  0
 19 20  1  0  0  0
 20 21  2  0  0  0
 21 22  1  0  0  0
 22 23  2  0  0  0
 23 26  1  0  0  0
 24 25  2  0  0  0
 24 29  1  0  0  0
 25 26  1  0  0  0
 26 27  2  0  0  0
 27 28  1  0  0  0
 28 29  2  0  0  0
M  END
>  <CHROM.0>
-103.26960261,-60.67265851,-45.48468777,64.86842655,33.08518513,-78.31774295
110.22319520,160.05244708,-103.59948342

>  <CHROM.1>
130.86731700,169.24079033,100.42380014,-163.36019774,-85.39102199,48.36618039
159.02721477,162.77191607,141.27477334,-81.07915606,7.96435903,5.93227870
22.81717499,1.79871178,0.24312469,-2.37133142

>  <FORMUL>
      4PP    C23 H24 N4 O2

>  <HET>
 4PP  C 500      29

>  <HETNAM>
     4PP (2S)-(3'-AMIDINO-3-BIPHENYL)-5-(4-PYRIDYLAMINO)PENTANOI
   2 4PP C ACID

>  <Name>
4PP.pdb

>  <RI>
0

>  <Rbt.Current_Directory>
/home/malgorzata/Desktop/rDOCK_IFD/Wyniki/7b_factor_Xa

>  <Rbt.Executable>
rbdock ($Id: //depot/dev/client3/rdock/2013.1/src/exe/rbdock.cxx#4 $)

>  <Rbt.Library>
libRbt.so (2013.1, Build901 2013/11/27)

>  <Rbt.Parameter_File>
/home/malgorzata/Desktop/rDock_2013.1_src/data/scripts/soft_docking.prm

>  <Rbt.Receptor>
cavity.prm

>  <SCORE>
-36.3531

>  <SCORE.INTER>
-33.3834

>  <SCORE.INTER.CONST>
1

>  <SCORE.INTER.POLAR>
-0.786617

>  <SCORE.INTER.REPUL>
0

>  <SCORE.INTER.ROT>
9

>  <SCORE.INTER.VDW>
-45.1089

>  <SCORE.INTER.norm>
-1.15115

>  <SCORE.INTRA>
3.78309

>  <SCORE.INTRA.DIHEDRAL>
25.1501

>  <SCORE.INTRA.DIHEDRAL.0>
20.1331

>  <SCORE.INTRA.POLAR>
0

>  <SCORE.INTRA.POLAR.0>
0

>  <SCORE.INTRA.REPUL>
0

>  <SCORE.INTRA.REPUL.0>
0

>  <SCORE.INTRA.VDW>
-1.24693

>  <SCORE.INTRA.VDW.0>
0.0644272

>  <SCORE.INTRA.norm>
0.130451

>  <SCORE.RESTR>
0

>  <SCORE.RESTR.CAVITY>
0

>  <SCORE.RESTR.norm>
0

>  <SCORE.SYSTEM>
-6.75281

>  <SCORE.SYSTEM.CONST>
0

>  <SCORE.SYSTEM.DIHEDRAL>
8.84149

>  <SCORE.SYSTEM.POLAR>
-3.05312

>  <SCORE.SYSTEM.REPUL>
0.657809

>  <SCORE.SYSTEM.VDW>
-4.08201

>  <SCORE.SYSTEM.norm>
-0.232856

>  <SCORE.heavy>
29

>  <SCORE.norm>
-1.25356

$$$$
4PP.pdb
  rDOCK(R)          3D
libRbt.so/2013.1/901 2013/11/27
 34 36  0  0  0  0  0  0  0  0999 V2000
    5.8207    1.0709   21.3594 C   0  0  0  0  0  0
    4.9313    0.8228   20.5335 O   0  0  0  0  0  0
    5.6656    0.7073   22.6698 O   0  0  0  0  0  0
   10.3927   -4.3816   16.9094 N   0  0  0  0  0  0
   11.3803   -3.3972   17.1096 C   0  0  0  0  0  0
   10.9953   -2.0722   17.4011 C   0  0  0  0  0  0
    9.6297   -1.7325   17.4905 C   0  0  0  0  0  0
    8.6356   -2.7311   17.2894 C   0  0  0  0  0  0
    9.0225   -4.0475   17.0007 C   0  0  0  0  0  0
    9.2725   -0.3222   17.7981 N   0  0  0  0  0  0
    7.1042    1.7831   20.8870 C   0  0  0  0  0  0
    7.5876    1.2134   19.5510 C   0  0  0  0  0  0
    9.0956    1.4330   19.4809 C   0  0  0  0  0  0
    9.7873    0.1260   19.1103 C   0  0  0  0  0  0
    8.7293   10.6293   24.8445 N   0  0  0  0  0  0
    8.2009   10.5370   22.6225 N   0  0  0  0  0  0
    8.1811    9.9958   23.8242 C   0  0  0  0  0  0
    6.3555    6.0897   20.5222 C   0  0  0  0  0  0
    6.2634    5.2424   19.3839 C   0  0  0  0  0  0
    6.5069    3.8507   19.5162 C   0  0  0  0  0  0
    6.8455    3.2951   20.7848 C   0  0  0  0  0  0
    6.9417    4.1440   21.9354 C   0  0  0  0  0  0
    6.6959    5.5452   21.8068 C   0  0  0  0  0  0
    6.3685    6.9550   25.4370 C   0  0  0  0  0  0
    6.2682    6.0748   24.3202 C   0  0  0  0  0  0
    6.7892    6.4750   23.0482 C   0  0  0  0  0  0
    7.4015    7.7484   22.9123 C   0  0  0  0  0  0
    7.5055    8.6253   24.0201 C   0  0  0  0  0  0
    6.9880    8.2320   25.2863 C   0  0  0  0  0  0
    4.8838    0.9396   23.1311 H   0  0  0  0  0  0
    8.7493    0.2518   17.1930 H   0  0  0  0  0  0
    9.1582   11.5048   24.7073 H   0  0  0  0  0  0
    8.6294   11.4124   22.4839 H   0  0  0  0  0  0
    7.7871   10.0658   21.8636 H   0  0  0  0  0  0
  1  2  2  0  0  0
  1  3  1  0  0  0
  1 11  1  0  0  0
  3 30  1  0  0  0
  4  5  2  0  0  0
  4  9  1  0  0  0
  5  6  1  0  0  0
  6  7  2  0  0  0
  7  8  1  0  0  0
  7 10  1  0  0  0
  8  9  2  0  0  0
 10 14  1  0  0  0
 10 31  1  0  0  0
 11 12  1  0  0  0
 11 21  1  0  0  0
 12 13  1  0  0  0
 13 14  1  0  0  0
 15 17  2  0  0  0
 15 32  1  0  0  0
 16 17  1  0  0  0
 16 33  1  0  0  0
 16 34  1  0  0  0
 17 28  1  0  0  0
 18 19  2  0  0  0
 18 23  1  0  0  0
 19 20  1  0  0  0
 20 21  2  0  0  0
 21 22  1  0  0  0
 22 23  2  0  0  0
 23 26  1  0  0  0
 24 25  2  0  0  0
 24 29  1  0  0  0
 25 26  1  0  0  0
 26 27  2  0  0  0
 27 28  1  0  0  0
 28 29  2  0  0  0
M  END
>  <CHROM.0>
-7.36296889,-60.67265851,-159.25123528,171.04384203,98.95037389,-77.15152972
8.65842199,-169.01478481,151.84159650

>  <CHROM.1>
-50.79334924,-42.27661800,-61.16125328,-166.31410491,-153.35140279,-96.50592119
129.70189495,59.46569317,-155.52017065,138.50599486,7.76387628,3.14340360
20.85060297,1.37285320,-0.54971267,-2.73715276

>  <FORMUL>
      4PP    C23 H24 N4 O2

>  <HET>
 4PP  C 500      29

>  <HETNAM>
     4PP (2S)-(3'-AMIDINO-3-BIPHENYL)-5-(4-PYRIDYLAMINO)PENTANOI
   2 4PP C ACID

>  <Name>
4PP.pdb

>  <RI>
0

>  <Rbt.Current_Directory>
/home/malgorzata/Desktop/rDOCK_IFD/Wyniki/7b_factor_Xa

>  <Rbt.Executable>
rbdock ($Id: //depot/dev/client3/rdock/2013.1/src/exe/rbdock.cxx#4 $)

>  <Rbt.Library>
libRbt.so (2013.1, Build901 2013/11/27)

>  <Rbt.Parameter_File>
/home/malgorzata/Desktop/rDock_2013.1_src/data/scripts/soft_docking.prm

>  <Rbt.Receptor>
cavity.prm

>  <SCORE>
-27.4412

>  <SCORE.INTER>
-25.7434

>  <SCORE.INTER.CONST>
1

>  <SCORE.INTER.POLAR>
-0.75343

>  <SCORE.INTER.REPUL>
0

>  <SCORE.INTER.ROT>
9

>  <SCORE.INTER.VDW>
-37.5818

>  <SCORE.INTER.norm>
-0.887704

>  <SCORE.INTRA>
3.51235

>  <SCORE.INTRA.DIHEDRAL>
20.9533

>  <SCORE.INTRA.DIHEDRAL.0>
20.1331

>  <SCORE.INTRA.POLAR>
0

>  <SCORE.INTRA.POLAR.0>
0

>  <SCORE.INTRA.REPUL>
0

>  <SCORE.INTRA.REPUL.0>
0

>  <SCORE.INTRA.VDW>
-0.678307

>  <SCORE.INTRA.VDW.0>
0.0644272

>  <SCORE.INTRA.norm>
0.121116

>  <SCORE.RESTR>
0

>  <SCORE.RESTR.CAVITY>
0

>  <SCORE.RESTR.norm>
0

>  <SCORE.SYSTEM>
-5.21014

>  <SCORE.SYSTEM.CONST>
0

>  <SCORE.SYSTEM.DIHEDRAL>
8.98182

>  <SCORE.SYSTEM.POLAR>
-2.99263

>  <SCORE.SYSTEM.REPUL>
0.830581

>  <SCORE.SYSTEM.VDW>
-3.67903

>  <SCORE.SYSTEM.norm>
-0.17966

>  <SCORE.heavy>
29

>  <SCORE.norm>
-0.946249

$$$$
