FXV.pdb
  rDOCK(R)          3D
libRbt.so/2013.1/901 2013/11/27
 38 40  0  0  0  0  0  0  0  0999 V2000
   -0.9510   25.6154   16.6864 C   0  0  0  0  0  0
   -1.6688   24.4341   17.0691 C   0  0  0  0  0  0
   -2.8512   24.5955   17.8790 C   0  0  0  0  0  0
   -3.2778   25.9041   18.2804 C   0  0  0  0  0  0
   -2.5812   27.0275   17.9086 N   0  0  0  0  0  0
   -1.4388   26.8823   17.1256 C   0  0  0  0  0  0
    0.4373   21.1785   16.7982 C   0  0  0  0  0  0
   -0.3120   20.4260   15.7945 C   0  0  0  0  0  0
   -1.4922   21.0339   15.2330 C   0  0  0  0  0  0
   -1.9264   22.3313   15.6391 C   0  0  0  0  0  0
   -1.2034   23.0798   16.6265 C   0  0  0  0  0  0
   -0.0238   22.4802   17.1889 C   0  0  0  0  0  0
    0.0554   19.0891   15.3409 C   0  0  0  0  0  0
   -0.9838   18.3189   14.9643 N   0  0  0  0  0  0
   -0.8295   16.9835   14.4452 C   0  0  0  0  0  0
   -2.2084   16.5235   13.9242 C   0  0  0  0  0  0
   -0.2272   16.0765   15.5826 C   0  0  0  0  0  0
    0.0234   14.6594   15.0344 C   0  0  0  0  0  0
    1.1354   14.6157   14.2517 O   0  0  0  0  0  0
   -1.1177   16.0290   16.9056 C   0  0  0  0  0  0
   -2.0493   18.3841   17.6359 C   0  0  0  0  0  0
   -1.9862   19.5669   18.4928 C   0  0  0  0  0  0
   -0.9448   19.6361   19.5040 C   0  0  0  0  0  0
   -0.0045   18.5678   19.6578 C   0  0  0  0  0  0
   -0.0756   17.4074   18.8075 C   0  0  0  0  0  0
   -1.0911   17.2875   17.7874 C   0  0  0  0  0  0
   -2.9428   20.6666   18.3456 C   0  0  0  0  0  0
   -2.9207   21.7292   19.1554 N   0  0  0  0  0  0
   -3.8634   20.6077   17.3668 N   0  0  0  0  0  0
   -0.6763   13.7339   15.2603 O   0  0  0  0  0  0
    1.2362   18.6965   15.2851 O   0  0  0  0  0  0
    1.6048   13.4030   13.6573 C   0  0  0  0  0  0
   -2.9846   28.2720   18.2897 O   0  0  0  0  0  0
   -1.8934   18.6864   15.0479 H   0  0  0  0  0  0
   -2.2521   21.7851   19.8759 H   0  0  0  0  0  0
   -3.8910   19.8306   16.7631 H   0  0  0  0  0  0
   -4.5098   21.3418   17.2541 H   0  0  0  0  0  0
   -3.1743   28.2732   19.2410 H   0  0  0  0  0  0
  1  2  1  0  0  0
  1  6  2  0  0  0
  2  3  1  0  0  0
  2 11  1  0  0  0
  3  4  2  0  0  0
  4  5  1  0  0  0
  5  6  1  0  0  0
  5 33  1  0  0  0
  7  8  2  0  0  0
  7 12  1  0  0  0
  8  9  1  0  0  0
  8 13  1  0  0  0
  9 10  2  0  0  0
 10 11  1  0  0  0
 11 12  2  0  0  0
 13 14  1  0  0  0
 13 31  2  0  0  0
 14 15  1  0  0  0
 14 34  1  0  0  0
 15 16  1  0  0  0
 15 17  1  0  0  0
 17 18  1  0  0  0
 17 20  1  0  0  0
 18 19  1  0  0  0
 18 30  2  0  0  0
 19 32  1  0  0  0
 20 26  1  0  0  0
 21 22  2  0  0  0
 21 26  1  0  0  0
 22 23  1  0  0  0
 22 27  1  0  0  0
 23 24  2  0  0  0
 24 25  1  0  0  0
 25 26  2  0  0  0
 27 28  2  0  0  0
 27 29  1  0  0  0
 28 35  1  0  0  0
 29 36  1  0  0  0
 29 37  1  0  0  0
 33 38  1  0  0  0
M  END
>  <CHROM.0>
-111.50726844,13.67943264,-83.08965897,44.24407930,51.53213869,-168.97614661
57.73833012,62.93088743

>  <CHROM.1>
-108.54593574,48.08540271,149.40048767,-171.14803093,-176.86458868,76.30064668
-73.84215684,178.04217587,91.32649280,177.61205036,-1.16221952,20.11781308
16.68861216,-2.10667419,-1.14792562,2.88773929

>  <FORMUL>
      FXV    C25 H27 N4 O4 1+

>  <HET>
 FXV  A 401      33

>  <HETNAM>
     FXV METHYL-3-(4'-N-OXOPYRIDYLPHENOYL)-3-METHYL-2-(M-AMIDINO
   2 FXV BENZYL)-PROPIONATE

>  <HETSYN>
     FXV FXV673

>  <Name>
FXV.pdb

>  <RI>
0

>  <Rbt.Current_Directory>
/home/malgorzata/Desktop/rDOCK_IFD/Wyniki/8_factor_Xa2/IFD

>  <Rbt.Executable>
rbdock ($Id: //depot/dev/client3/rdock/2013.1/src/exe/rbdock.cxx#4 $)

>  <Rbt.Library>
libRbt.so (2013.1, Build901 2013/11/27)

>  <Rbt.Parameter_File>
/home/malgorzata/Desktop/rDock_2013.1_src/data/scripts/dock.prm

>  <Rbt.Receptor>
cavity.prm

>  <SCORE>
-27.1576

>  <SCORE.INTER>
-14.4601

>  <SCORE.INTER.CONST>
1

>  <SCORE.INTER.POLAR>
-1.29826

>  <SCORE.INTER.REPUL>
0

>  <SCORE.INTER.ROT>
9

>  <SCORE.INTER.VDW>
-24.446

>  <SCORE.INTER.norm>
-0.438186

>  <SCORE.INTRA>
-4.16022

>  <SCORE.INTRA.DIHEDRAL>
2.06082

>  <SCORE.INTRA.DIHEDRAL.0>
8.37942

>  <SCORE.INTRA.POLAR>
0

>  <SCORE.INTRA.POLAR.0>
0

>  <SCORE.INTRA.REPUL>
0

>  <SCORE.INTRA.REPUL.0>
0

>  <SCORE.INTRA.VDW>
-5.19063

>  <SCORE.INTRA.VDW.0>
-0.0658046

>  <SCORE.INTRA.norm>
-0.126067

>  <SCORE.RESTR>
0

>  <SCORE.RESTR.CAVITY>
0

>  <SCORE.RESTR.norm>
0

>  <SCORE.SYSTEM>
-8.53724

>  <SCORE.SYSTEM.CONST>
0

>  <SCORE.SYSTEM.DIHEDRAL>
3.29706

>  <SCORE.SYSTEM.POLAR>
-2.74967

>  <SCORE.SYSTEM.REPUL>
0.102794

>  <SCORE.SYSTEM.VDW>
-1.35087

>  <SCORE.SYSTEM.norm>
-0.258704

>  <SCORE.heavy>
33

>  <SCORE.norm>
-0.822957

$$$$
FXV.pdb
  rDOCK(R)          3D
libRbt.so/2013.1/901 2013/11/27
 38 40  0  0  0  0  0  0  0  0999 V2000
   -1.2874   27.5707   16.5622 C   0  0  0  0  0  0
   -2.2368   26.8786   17.3849 C   0  0  0  0  0  0
   -3.1999   27.6671   18.1135 C   0  0  0  0  0  0
   -3.1904   29.0968   18.0072 C   0  0  0  0  0  0
   -2.2753   29.7480   17.2171 N   0  0  0  0  0  0
   -1.3420   28.9955   16.5086 C   0  0  0  0  0  0
   -3.3064   23.2383   18.2289 C   0  0  0  0  0  0
   -2.2354   22.4648   17.6049 C   0  0  0  0  0  0
   -1.1845   23.1841   16.9296 C   0  0  0  0  0  0
   -1.1809   24.6097   16.8648 C   0  0  0  0  0  0
   -2.2279   25.3821   17.4690 C   0  0  0  0  0  0
   -3.2781   24.6709   18.1462 C   0  0  0  0  0  0
   -2.1773   21.0071   17.6109 C   0  0  0  0  0  0
   -0.9567   20.4931   17.3642 N   0  0  0  0  0  0
   -0.6800   19.0788   17.3689 C   0  0  0  0  0  0
   -0.1110   18.7196   18.7587 C   0  0  0  0  0  0
    0.2858   18.7592   16.1672 C   0  0  0  0  0  0
   -0.4114   17.7985   15.1861 C   0  0  0  0  0  0
   -0.4369   16.5257   15.6661 O   0  0  0  0  0  0
    1.7047   18.1860   16.6182 C   0  0  0  0  0  0
    3.6641   18.6558   18.3176 C   0  0  0  0  0  0
    4.4769   19.5896   19.0954 C   0  0  0  0  0  0
    4.1911   21.0107   18.9915 C   0  0  0  0  0  0
    3.1388   21.4837   18.1441 C   0  0  0  0  0  0
    2.3439   20.5546   17.3829 C   0  0  0  0  0  0
    2.5863   19.1321   17.4488 C   0  0  0  0  0  0
    5.5567   19.1181   19.9658 C   0  0  0  0  0  0
    5.8971   17.8274   20.0256 N   0  0  0  0  0  0
    6.2264   20.0080   20.7199 N   0  0  0  0  0  0
   -0.8544   18.1322   14.1423 O   0  0  0  0  0  0
   -3.1707   20.2935   17.8462 O   0  0  0  0  0  0
   -1.0239   15.4451   14.9367 C   0  0  0  0  0  0
   -2.2642   31.1068   17.1154 O   0  0  0  0  0  0
   -0.2174   21.1141   17.1714 H   0  0  0  0  0  0
    5.4152   17.1655   19.4789 H   0  0  0  0  0  0
    5.9859   20.9621   20.6855 H   0  0  0  0  0  0
    6.9570   19.7054   21.3063 H   0  0  0  0  0  0
   -1.6682   31.3723   16.3976 H   0  0  0  0  0  0
  1  2  1  0  0  0
  1  6  2  0  0  0
  2  3  1  0  0  0
  2 11  1  0  0  0
  3  4  2  0  0  0
  4  5  1  0  0  0
  5  6  1  0  0  0
  5 33  1  0  0  0
  7  8  2  0  0  0
  7 12  1  0  0  0
  8  9  1  0  0  0
  8 13  1  0  0  0
  9 10  2  0  0  0
 10 11  1  0  0  0
 11 12  2  0  0  0
 13 14  1  0  0  0
 13 31  2  0  0  0
 14 15  1  0  0  0
 14 34  1  0  0  0
 15 16  1  0  0  0
 15 17  1  0  0  0
 17 18  1  0  0  0
 17 20  1  0  0  0
 18 19  1  0  0  0
 18 30  2  0  0  0
 19 32  1  0  0  0
 20 26  1  0  0  0
 21 22  2  0  0  0
 21 26  1  0  0  0
 22 23  1  0  0  0
 22 27  1  0  0  0
 23 24  2  0  0  0
 24 25  1  0  0  0
 25 26  2  0  0  0
 27 28  2  0  0  0
 27 29  1  0  0  0
 28 35  1  0  0  0
 29 36  1  0  0  0
 29 37  1  0  0  0
 33 38  1  0  0  0
M  END
>  <CHROM.0>
-134.94757413,15.96152962,71.54272453,43.78810987,167.62091208,172.88440256
61.39725569,62.24037983

>  <CHROM.1>
7.56774824,-169.56496047,-160.61518634,-96.65528848,-117.85289227,-75.86248872
-63.73101554,-179.64963169,158.20566718,4.06037016,0.02832110,21.96911264
17.49373214,-2.07562289,0.42339558,-2.95529323

>  <FORMUL>
      FXV    C25 H27 N4 O4 1+

>  <HET>
 FXV  A 401      33

>  <HETNAM>
     FXV METHYL-3-(4'-N-OXOPYRIDYLPHENOYL)-3-METHYL-2-(M-AMIDINO
   2 FXV BENZYL)-PROPIONATE

>  <HETSYN>
     FXV FXV673

>  <Name>
FXV.pdb

>  <RI>
0

>  <Rbt.Current_Directory>
/home/malgorzata/Desktop/rDOCK_IFD/Wyniki/8_factor_Xa2/IFD

>  <Rbt.Executable>
rbdock ($Id: //depot/dev/client3/rdock/2013.1/src/exe/rbdock.cxx#4 $)

>  <Rbt.Library>
libRbt.so (2013.1, Build901 2013/11/27)

>  <Rbt.Parameter_File>
/home/malgorzata/Desktop/rDock_2013.1_src/data/scripts/dock.prm

>  <Rbt.Receptor>
cavity.prm

>  <SCORE>
-21.3307

>  <SCORE.INTER>
-20.8201

>  <SCORE.INTER.CONST>
1

>  <SCORE.INTER.POLAR>
-1.12129

>  <SCORE.INTER.REPUL>
0.0109611

>  <SCORE.INTER.ROT>
9

>  <SCORE.INTER.VDW>
-31.4626

>  <SCORE.INTER.norm>
-0.630913

>  <SCORE.INTRA>
4.83255

>  <SCORE.INTRA.DIHEDRAL>
1.99131

>  <SCORE.INTRA.DIHEDRAL.0>
8.37942

>  <SCORE.INTRA.POLAR>
0

>  <SCORE.INTRA.POLAR.0>
0

>  <SCORE.INTRA.REPUL>
0

>  <SCORE.INTRA.REPUL.0>
0

>  <SCORE.INTRA.VDW>
3.83689

>  <SCORE.INTRA.VDW.0>
-0.0658046

>  <SCORE.INTRA.norm>
0.146441

>  <SCORE.RESTR>
0.00156817

>  <SCORE.RESTR.CAVITY>
0.00156817

>  <SCORE.RESTR.norm>
4.75204e-05

>  <SCORE.SYSTEM>
-5.34472

>  <SCORE.SYSTEM.CONST>
0

>  <SCORE.SYSTEM.DIHEDRAL>
3.70717

>  <SCORE.SYSTEM.POLAR>
-1.80335

>  <SCORE.SYSTEM.REPUL>
0.111936

>  <SCORE.SYSTEM.VDW>
-1.62659

>  <SCORE.SYSTEM.norm>
-0.161961

>  <SCORE.heavy>
33

>  <SCORE.norm>
-0.646386

$$$$
FXV.pdb
  rDOCK(R)          3D
libRbt.so/2013.1/901 2013/11/27
 38 40  0  0  0  0  0  0  0  0999 V2000
   -3.1924   27.8616   17.9864 C   0  0  0  0  0  0
   -2.0994   27.2397   17.2965 C   0  0  0  0  0  0
   -1.1294   28.0956   16.6588 C   0  0  0  0  0  0
   -1.2725   29.5208   16.7219 C   0  0  0  0  0  0
   -2.3242   30.1041   17.3844 N   0  0  0  0  0  0
   -3.2656   29.2864   18.0045 C   0  0  0  0  0  0
   -0.5661   23.6923   16.8815 C   0  0  0  0  0  0
   -1.7061   22.8389   17.2088 C   0  0  0  0  0  0
   -2.9538   23.4754   17.5489 C   0  0  0  0  0  0
   -3.0831   24.8965   17.5701 C   0  0  0  0  0  0
   -1.9715   25.7469   17.2554 C   0  0  0  0  0  0
   -0.7245   25.1184   16.9129 C   0  0  0  0  0  0
   -1.6497   21.3813   17.2280 C   0  0  0  0  0  0
   -0.4092   20.8662   17.1229 N   0  0  0  0  0  0
   -0.1354   19.4521   17.1652 C   0  0  0  0  0  0
    0.1191   19.0703   18.6396 C   0  0  0  0  0  0
    1.0696   19.1518   16.1973 C   0  0  0  0  0  0
    1.1088   17.6468   15.8732 C   0  0  0  0  0  0
    1.2925   16.8987   16.9947 O   0  0  0  0  0  0
    2.4790   19.6547   16.7508 C   0  0  0  0  0  0
    3.4863   19.3244   14.3374 C   0  0  0  0  0  0
    4.6361   19.2611   13.4367 C   0  0  0  0  0  0
    5.9641   19.4602   13.9923 C   0  0  0  0  0  0
    6.1401   19.7152   15.3899 C   0  0  0  0  0  0
    5.0001   19.7747   16.2682 C   0  0  0  0  0  0
    3.6585   19.5848   15.7678 C   0  0  0  0  0  0
    4.4692   19.0013   12.0047 C   0  0  0  0  0  0
    3.4029   18.3516   11.5289 N   0  0  0  0  0  0
    5.4106   19.4326   11.1464 N   0  0  0  0  0  0
    1.0044   17.2065   14.7812 O   0  0  0  0  0  0
   -2.6635   20.6686   17.3531 O   0  0  0  0  0  0
    1.3121   15.4694   16.9655 C   0  0  0  0  0  0
   -2.4624   31.4584   17.4449 O   0  0  0  0  0  0
    0.3473   21.4864   17.0118 H   0  0  0  0  0  0
    2.7064   18.0305   12.1461 H   0  0  0  0  0  0
    6.2013   19.9126   11.4835 H   0  0  0  0  0  0
    5.3090   19.2682   10.1810 H   0  0  0  0  0  0
   -1.7314   31.8797   16.9661 H   0  0  0  0  0  0
  1  2  1  0  0  0
  1  6  2  0  0  0
  2  3  1  0  0  0
  2 11  1  0  0  0
  3  4  2  0  0  0
  4  5  1  0  0  0
  5  6  1  0  0  0
  5 33  1  0  0  0
  7  8  2  0  0  0
  7 12  1  0  0  0
  8  9  1  0  0  0
  8 13  1  0  0  0
  9 10  2  0  0  0
 10 11  1  0  0  0
 11 12  2  0  0  0
 13 14  1  0  0  0
 13 31  2  0  0  0
 14 15  1  0  0  0
 14 34  1  0  0  0
 15 16  1  0  0  0
 15 17  1  0  0  0
 17 18  1  0  0  0
 17 20  1  0  0  0
 18 19  1  0  0  0
 18 30  2  0  0  0
 19 32  1  0  0  0
 20 26  1  0  0  0
 21 22  2  0  0  0
 21 26  1  0  0  0
 22 23  1  0  0  0
 22 27  1  0  0  0
 23 24  2  0  0  0
 24 25  1  0  0  0
 25 26  2  0  0  0
 27 28  2  0  0  0
 27 29  1  0  0  0
 28 35  1  0  0  0
 29 36  1  0  0  0
 29 37  1  0  0  0
 33 38  1  0  0  0
M  END
>  <CHROM.0>
158.52715267,1.94412964,-80.34858951,46.05815775,172.31809765,-171.74552431
-62.60444848,64.69481296

>  <CHROM.1>
17.03347833,0.06338215,9.84544614,-90.45733547,-162.35734730,-61.23910917
-171.07985032,177.49588387,11.44796107,-24.65233908,0.56611989,22.09923815
16.16869021,2.21030971,0.61721772,-0.13174977

>  <FORMUL>
      FXV    C25 H27 N4 O4 1+

>  <HET>
 FXV  A 401      33

>  <HETNAM>
     FXV METHYL-3-(4'-N-OXOPYRIDYLPHENOYL)-3-METHYL-2-(M-AMIDINO
   2 FXV BENZYL)-PROPIONATE

>  <HETSYN>
     FXV FXV673

>  <Name>
FXV.pdb

>  <RI>
0

>  <Rbt.Current_Directory>
/home/malgorzata/Desktop/rDOCK_IFD/Wyniki/8_factor_Xa2/IFD

>  <Rbt.Executable>
rbdock ($Id: //depot/dev/client3/rdock/2013.1/src/exe/rbdock.cxx#4 $)

>  <Rbt.Library>
libRbt.so (2013.1, Build901 2013/11/27)

>  <Rbt.Parameter_File>
/home/malgorzata/Desktop/rDock_2013.1_src/data/scripts/dock.prm

>  <Rbt.Receptor>
cavity.prm

>  <SCORE>
-27.8618

>  <SCORE.INTER>
-22.5328

>  <SCORE.INTER.CONST>
1

>  <SCORE.INTER.POLAR>
0

>  <SCORE.INTER.REPUL>
0.139967

>  <SCORE.INTER.ROT>
9

>  <SCORE.INTER.VDW>
-37.6327

>  <SCORE.INTER.norm>
-0.682813

>  <SCORE.INTRA>
-0.0124757

>  <SCORE.INTRA.DIHEDRAL>
-1.06386

>  <SCORE.INTRA.DIHEDRAL.0>
8.37942

>  <SCORE.INTRA.POLAR>
0

>  <SCORE.INTRA.POLAR.0>
0

>  <SCORE.INTRA.REPUL>
0

>  <SCORE.INTRA.REPUL.0>
0

>  <SCORE.INTRA.VDW>
0.519457

>  <SCORE.INTRA.VDW.0>
-0.0658046

>  <SCORE.INTRA.norm>
-0.000378051

>  <SCORE.RESTR>
0

>  <SCORE.RESTR.CAVITY>
0

>  <SCORE.RESTR.norm>
0

>  <SCORE.SYSTEM>
-5.31652

>  <SCORE.SYSTEM.CONST>
0

>  <SCORE.SYSTEM.DIHEDRAL>
2.72928

>  <SCORE.SYSTEM.POLAR>
-1.74418

>  <SCORE.SYSTEM.REPUL>
0.165736

>  <SCORE.SYSTEM.VDW>
-1.57964

>  <SCORE.SYSTEM.norm>
-0.161107

>  <SCORE.heavy>
33

>  <SCORE.norm>
-0.844297

$$$$
FXV.pdb
  rDOCK(R)          3D
libRbt.so/2013.1/901 2013/11/27
 38 40  0  0  0  0  0  0  0  0999 V2000
    3.6483   19.2299   11.4490 C   0  0  0  0  0  0
    4.3646   19.1193   12.6867 C   0  0  0  0  0  0
    5.6912   19.6814   12.7513 C   0  0  0  0  0  0
    6.2593   20.3242   11.6025 C   0  0  0  0  0  0
    5.5639   20.4225   10.4226 N   0  0  0  0  0  0
    4.2816   19.8840   10.3504 C   0  0  0  0  0  0
    3.5057   18.2206   16.3694 C   0  0  0  0  0  0
    2.5025   17.1734   16.1905 C   0  0  0  0  0  0
    2.1513   16.7940   14.8450 C   0  0  0  0  0  0
    2.7578   17.4171   13.7134 C   0  0  0  0  0  0
    3.7409   18.4495   13.8737 C   0  0  0  0  0  0
    4.0976   18.8311   15.2133 C   0  0  0  0  0  0
    1.8239   16.5024   17.2938 C   0  0  0  0  0  0
    0.7634   15.7556   16.9294 N   0  0  0  0  0  0
   -0.0139   14.9799   17.8625 C   0  0  0  0  0  0
    0.3777   13.4978   17.6767 C   0  0  0  0  0  0
   -1.5379   15.2872   17.6132 C   0  0  0  0  0  0
   -1.8848   15.0144   16.1378 C   0  0  0  0  0  0
   -3.2271   14.8878   15.9553 O   0  0  0  0  0  0
   -1.9744   16.7610   18.0405 C   0  0  0  0  0  0
   -0.1778   18.6891   17.9879 C   0  0  0  0  0  0
    0.8523   19.4863   18.6517 C   0  0  0  0  0  0
    1.1620   19.2000   20.0424 C   0  0  0  0  0  0
    0.4709   18.1621   20.7455 C   0  0  0  0  0  0
   -0.5418   17.3825   20.0813 C   0  0  0  0  0  0
   -0.8890   17.6261   18.7005 C   0  0  0  0  0  0
    1.5664   20.5513   17.9433 C   0  0  0  0  0  0
    1.3318   20.8169   16.6550 N   0  0  0  0  0  0
    2.4774   21.2840   18.6082 N   0  0  0  0  0  0
   -1.0776   14.9159   15.2800 O   0  0  0  0  0  0
    2.2055   16.5938   18.4760 O   0  0  0  0  0  0
   -3.8018   14.6095   14.6760 C   0  0  0  0  0  0
    6.1023   21.0324    9.3294 O   0  0  0  0  0  0
    0.5070   15.7391   15.9790 H   0  0  0  0  0  0
    0.6676   20.2883   16.1564 H   0  0  0  0  0  0
    2.6600   21.0989   19.5577 H   0  0  0  0  0  0
    2.9617   22.0055   18.1453 H   0  0  0  0  0  0
    6.9348   21.4641    9.5773 H   0  0  0  0  0  0
  1  2  1  0  0  0
  1  6  2  0  0  0
  2  3  1  0  0  0
  2 11  1  0  0  0
  3  4  2  0  0  0
  4  5  1  0  0  0
  5  6  1  0  0  0
  5 33  1  0  0  0
  7  8  2  0  0  0
  7 12  1  0  0  0
  8  9  1  0  0  0
  8 13  1  0  0  0
  9 10  2  0  0  0
 10 11  1  0  0  0
 11 12  2  0  0  0
 13 14  1  0  0  0
 13 31  2  0  0  0
 14 15  1  0  0  0
 14 34  1  0  0  0
 15 16  1  0  0  0
 15 17  1  0  0  0
 17 18  1  0  0  0
 17 20  1  0  0  0
 18 19  1  0  0  0
 18 30  2  0  0  0
 19 32  1  0  0  0
 20 26  1  0  0  0
 21 22  2  0  0  0
 21 26  1  0  0  0
 22 23  1  0  0  0
 22 27  1  0  0  0
 23 24  2  0  0  0
 24 25  1  0  0  0
 25 26  2  0  0  0
 27 28  2  0  0  0
 27 29  1  0  0  0
 28 35  1  0  0  0
 29 36  1  0  0  0
 29 37  1  0  0  0
 33 38  1  0  0  0
M  END
>  <CHROM.0>
-102.84103412,3.48234370,72.55373178,-177.78870635,50.81373064,17.06138914
63.55874679,177.21043529

>  <CHROM.1>
28.32934230,-8.30725168,168.05435282,-104.48653079,55.31731551,162.31673722
-3.52851849,-178.96745978,102.86069071,-1.70875880,1.56860906,17.81446905
15.84195261,0.48628915,-0.77136370,-1.94726362

>  <FORMUL>
      FXV    C25 H27 N4 O4 1+

>  <HET>
 FXV  A 401      33

>  <HETNAM>
     FXV METHYL-3-(4'-N-OXOPYRIDYLPHENOYL)-3-METHYL-2-(M-AMIDINO
   2 FXV BENZYL)-PROPIONATE

>  <HETSYN>
     FXV FXV673

>  <Name>
FXV.pdb

>  <RI>
0

>  <Rbt.Current_Directory>
/home/malgorzata/Desktop/rDOCK_IFD/Wyniki/8_factor_Xa2/IFD

>  <Rbt.Executable>
rbdock ($Id: //depot/dev/client3/rdock/2013.1/src/exe/rbdock.cxx#4 $)

>  <Rbt.Library>
libRbt.so (2013.1, Build901 2013/11/27)

>  <Rbt.Parameter_File>
/home/malgorzata/Desktop/rDock_2013.1_src/data/scripts/dock.prm

>  <Rbt.Receptor>
cavity.prm

>  <SCORE>
-19.9317

>  <SCORE.INTER>
-11.4342

>  <SCORE.INTER.CONST>
1

>  <SCORE.INTER.POLAR>
0

>  <SCORE.INTER.REPUL>
0

>  <SCORE.INTER.ROT>
9

>  <SCORE.INTER.VDW>
-25.8342

>  <SCORE.INTER.norm>
-0.346491

>  <SCORE.INTRA>
-1.74846

>  <SCORE.INTRA.DIHEDRAL>
1.27031

>  <SCORE.INTRA.DIHEDRAL.0>
8.37942

>  <SCORE.INTRA.POLAR>
-0.0380329

>  <SCORE.INTRA.POLAR.0>
0

>  <SCORE.INTRA.REPUL>
0

>  <SCORE.INTRA.REPUL.0>
0

>  <SCORE.INTRA.VDW>
-2.25431

>  <SCORE.INTRA.VDW.0>
-0.0658046

>  <SCORE.INTRA.norm>
-0.0529837

>  <SCORE.RESTR>
0

>  <SCORE.RESTR.CAVITY>
0

>  <SCORE.RESTR.norm>
0

>  <SCORE.SYSTEM>
-6.74908

>  <SCORE.SYSTEM.CONST>
0

>  <SCORE.SYSTEM.DIHEDRAL>
2.2389

>  <SCORE.SYSTEM.POLAR>
-1.9218

>  <SCORE.SYSTEM.REPUL>
0.00825222

>  <SCORE.SYSTEM.VDW>
-1.37568

>  <SCORE.SYSTEM.norm>
-0.204518

>  <SCORE.heavy>
33

>  <SCORE.norm>
-0.603992

$$$$
FXV.pdb
  rDOCK(R)          3D
libRbt.so/2013.1/901 2013/11/27
 38 40  0  0  0  0  0  0  0  0999 V2000
   -1.1366   25.5341   16.4925 C   0  0  0  0  0  0
   -2.1856   24.6121   16.8190 C   0  0  0  0  0  0
   -3.2284   25.0632   17.7074 C   0  0  0  0  0  0
   -3.1979   26.3945   18.2386 C   0  0  0  0  0  0
   -2.1873   27.2676   17.9195 N   0  0  0  0  0  0
   -1.1763   26.8419   17.0616 C   0  0  0  0  0  0
   -3.4139   21.3773   15.0483 C   0  0  0  0  0  0
   -2.2103   20.5494   15.0799 C   0  0  0  0  0  0
   -1.0288   21.0944   15.7000 C   0  0  0  0  0  0
   -1.0227   22.4036   16.2682 C   0  0  0  0  0  0
   -2.1954   23.2293   16.2407 C   0  0  0  0  0  0
   -3.3783   22.6907   15.6257 C   0  0  0  0  0  0
   -2.1305   19.2110   14.5052 C   0  0  0  0  0  0
   -3.2832   18.7586   13.9743 N   0  0  0  0  0  0
   -3.4029   17.4801   13.3202 C   0  0  0  0  0  0
   -4.6942   17.5085   12.4739 C   0  0  0  0  0  0
   -3.3705   16.3554   14.4215 C   0  0  0  0  0  0
   -3.3539   14.9716   13.7458 C   0  0  0  0  0  0
   -3.3421   13.9674   14.6636 O   0  0  0  0  0  0
   -4.5579   16.4601   15.4819 C   0  0  0  0  0  0
   -3.5697   18.4079   16.9574 C   0  0  0  0  0  0
   -3.7328   19.6789   17.6612 C   0  0  0  0  0  0
   -5.0326   20.3282   17.6281 C   0  0  0  0  0  0
   -6.1265   19.7362   16.9194 C   0  0  0  0  0  0
   -5.9545   18.4832   16.2302 C   0  0  0  0  0  0
   -4.6838   17.7965   16.2305 C   0  0  0  0  0  0
   -2.6211   20.2951   18.3895 C   0  0  0  0  0  0
   -2.7507   21.4771   18.9989 N   0  0  0  0  0  0
   -1.4415   19.6519   18.4510 N   0  0  0  0  0  0
   -3.3401   14.8120   12.5747 O   0  0  0  0  0  0
   -1.0771   18.5466   14.4864 O   0  0  0  0  0  0
   -3.2474   12.5907   14.2894 C   0  0  0  0  0  0
   -2.1561   28.5331   18.4240 O   0  0  0  0  0  0
   -4.0830   19.3294   14.0363 H   0  0  0  0  0  0
   -3.6086   21.9586   18.9618 H   0  0  0  0  0  0
   -1.3322   18.7803   18.0065 H   0  0  0  0  0  0
   -0.6872   20.0528   18.9406 H   0  0  0  0  0  0
   -1.4151   29.0198   18.0305 H   0  0  0  0  0  0
  1  2  1  0  0  0
  1  6  2  0  0  0
  2  3  1  0  0  0
  2 11  1  0  0  0
  3  4  2  0  0  0
  4  5  1  0  0  0
  5  6  1  0  0  0
  5 33  1  0  0  0
  7  8  2  0  0  0
  7 12  1  0  0  0
  8  9  1  0  0  0
  8 13  1  0  0  0
  9 10  2  0  0  0
 10 11  1  0  0  0
 11 12  2  0  0  0
 13 14  1  0  0  0
 13 31  2  0  0  0
 14 15  1  0  0  0
 14 34  1  0  0  0
 15 16  1  0  0  0
 15 17  1  0  0  0
 17 18  1  0  0  0
 17 20  1  0  0  0
 18 19  1  0  0  0
 18 30  2  0  0  0
 19 32  1  0  0  0
 20 26  1  0  0  0
 21 22  2  0  0  0
 21 26  1  0  0  0
 22 23  1  0  0  0
 22 27  1  0  0  0
 23 24  2  0  0  0
 24 25  1  0  0  0
 25 26  2  0  0  0
 27 28  2  0  0  0
 27 29  1  0  0  0
 28 35  1  0  0  0
 29 36  1  0  0  0
 29 37  1  0  0  0
 33 38  1  0  0  0
M  END
>  <CHROM.0>
-122.28031864,11.67415114,-42.14685170,-177.05760307,51.96667896,13.62023966
64.55669403,-55.42881249

>  <CHROM.1>
48.45441562,-175.28544421,-2.40636816,-162.30774525,-174.35187363,-179.25942613
-55.93064224,-176.28421600,-53.45829323,177.81820976,-3.02040081,20.31737607
15.98055946,-1.34939838,-0.92206156,-2.64723298

>  <FORMUL>
      FXV    C25 H27 N4 O4 1+

>  <HET>
 FXV  A 401      33

>  <HETNAM>
     FXV METHYL-3-(4'-N-OXOPYRIDYLPHENOYL)-3-METHYL-2-(M-AMIDINO
   2 FXV BENZYL)-PROPIONATE

>  <HETSYN>
     FXV FXV673

>  <Name>
FXV.pdb

>  <RI>
0

>  <Rbt.Current_Directory>
/home/malgorzata/Desktop/rDOCK_IFD/Wyniki/8_factor_Xa2/IFD

>  <Rbt.Executable>
rbdock ($Id: //depot/dev/client3/rdock/2013.1/src/exe/rbdock.cxx#4 $)

>  <Rbt.Library>
libRbt.so (2013.1, Build901 2013/11/27)

>  <Rbt.Parameter_File>
/home/malgorzata/Desktop/rDock_2013.1_src/data/scripts/dock.prm

>  <Rbt.Receptor>
cavity.prm

>  <SCORE>
-24.9194

>  <SCORE.INTER>
-13.0906

>  <SCORE.INTER.CONST>
1

>  <SCORE.INTER.POLAR>
-1.51695

>  <SCORE.INTER.REPUL>
0

>  <SCORE.INTER.ROT>
9

>  <SCORE.INTER.VDW>
-22.333

>  <SCORE.INTER.norm>
-0.396686

>  <SCORE.INTRA>
-5.75625

>  <SCORE.INTRA.DIHEDRAL>
-4.67789

>  <SCORE.INTRA.DIHEDRAL.0>
8.37942

>  <SCORE.INTRA.POLAR>
0

>  <SCORE.INTRA.POLAR.0>
0

>  <SCORE.INTRA.REPUL>
0

>  <SCORE.INTRA.REPUL.0>
0

>  <SCORE.INTRA.VDW>
-3.4173

>  <SCORE.INTRA.VDW.0>
-0.0658046

>  <SCORE.INTRA.norm>
-0.174432

>  <SCORE.RESTR>
0

>  <SCORE.RESTR.CAVITY>
0

>  <SCORE.RESTR.norm>
0

>  <SCORE.SYSTEM>
-6.07256

>  <SCORE.SYSTEM.CONST>
0

>  <SCORE.SYSTEM.DIHEDRAL>
2.29429

>  <SCORE.SYSTEM.POLAR>
-1.92543

>  <SCORE.SYSTEM.REPUL>
0.00820539

>  <SCORE.SYSTEM.VDW>
-0.714269

>  <SCORE.SYSTEM.norm>
-0.184017

>  <SCORE.heavy>
33

>  <SCORE.norm>
-0.755135

$$$$
FXV.pdb
  rDOCK(R)          3D
libRbt.so/2013.1/901 2013/11/27
 38 40  0  0  0  0  0  0  0  0999 V2000
    6.0050   21.2918   12.6267 C   0  0  0  0  0  0
    5.1286   20.1734   12.4309 C   0  0  0  0  0  0
    4.9019   19.7220   11.0800 C   0  0  0  0  0  0
    5.5400   20.3855    9.9809 C   0  0  0  0  0  0
    6.3760   21.4562   10.1812 N   0  0  0  0  0  0
    6.6024   21.8990   11.4821 C   0  0  0  0  0  0
    2.4743   18.3866   14.6377 C   0  0  0  0  0  0
    3.2298   18.1379   15.8634 C   0  0  0  0  0  0
    4.5997   18.5832   15.9174 C   0  0  0  0  0  0
    5.2108   19.2471   14.8118 C   0  0  0  0  0  0
    4.4828   19.4942   13.6007 C   0  0  0  0  0  0
    3.1151   19.0547   13.5410 C   0  0  0  0  0  0
    2.6836   17.4501   17.0281 C   0  0  0  0  0  0
    1.4213   17.0046   16.8759 N   0  0  0  0  0  0
    0.7178   16.2634   17.8920 C   0  0  0  0  0  0
    0.7971   14.7675   17.5170 C   0  0  0  0  0  0
   -0.7467   16.8322   17.9953 C   0  0  0  0  0  0
   -1.4024   16.8262   16.6019 C   0  0  0  0  0  0
   -2.7522   16.9754   16.6840 O   0  0  0  0  0  0
   -0.8280   18.2805   18.6596 C   0  0  0  0  0  0
   -1.6547   19.2754   20.9563 C   0  0  0  0  0  0
   -1.6369   19.2857   22.4181 C   0  0  0  0  0  0
   -0.7902   18.3272   23.1082 C   0  0  0  0  0  0
    0.0057   17.3929   22.3713 C   0  0  0  0  0  0
   -0.0191   17.3923   20.9312 C   0  0  0  0  0  0
   -0.8435   18.3229   20.1959 C   0  0  0  0  0  0
   -2.4470   20.2364   23.1835 C   0  0  0  0  0  0
   -2.9942   19.9066   24.3571 N   0  0  0  0  0  0
   -2.6403   21.4746   22.6952 N   0  0  0  0  0  0
   -0.8009   16.6946   15.5929 O   0  0  0  0  0  0
    3.3373   17.2692   18.0728 O   0  0  0  0  0  0
   -3.5922   16.9844   15.5271 C   0  0  0  0  0  0
    6.9829   22.0886    9.1379 O   0  0  0  0  0  0
    0.9567   17.1947   16.0290 H   0  0  0  0  0  0
   -2.8606   19.0038   24.7261 H   0  0  0  0  0  0
   -2.2429   21.7308   21.8317 H   0  0  0  0  0  0
   -3.1793   22.1248   23.2013 H   0  0  0  0  0  0
    6.7007   21.6807    8.3043 H   0  0  0  0  0  0
  1  2  1  0  0  0
  1  6  2  0  0  0
  2  3  1  0  0  0
  2 11  1  0  0  0
  3  4  2  0  0  0
  4  5  1  0  0  0
  5  6  1  0  0  0
  5 33  1  0  0  0
  7  8  2  0  0  0
  7 12  1  0  0  0
  8  9  1  0  0  0
  8 13  1  0  0  0
  9 10  2  0  0  0
 10 11  1  0  0  0
 11 12  2  0  0  0
 13 14  1  0  0  0
 13 31  2  0  0  0
 14 15  1  0  0  0
 14 34  1  0  0  0
 15 16  1  0  0  0
 15 17  1  0  0  0
 17 18  1  0  0  0
 17 20  1  0  0  0
 18 19  1  0  0  0
 18 30  2  0  0  0
 19 32  1  0  0  0
 20 26  1  0  0  0
 21 22  2  0  0  0
 21 26  1  0  0  0
 22 23  1  0  0  0
 22 27  1  0  0  0
 23 24  2  0  0  0
 24 25  1  0  0  0
 25 26  2  0  0  0
 27 28  2  0  0  0
 27 29  1  0  0  0
 28 35  1  0  0  0
 29 36  1  0  0  0
 29 37  1  0  0  0
 33 38  1  0  0  0
M  END
>  <CHROM.0>
-109.88245902,129.44189965,70.11795522,44.65268085,171.36701804,-178.46452818
63.18645945,172.26830535

>  <CHROM.1>
-40.97909470,1.82885437,2.42392748,-99.68999371,53.37279082,164.22427249
-83.50045395,-179.16749751,-142.19395138,145.40132199,1.48953540,18.68776270
16.75002727,-0.66600748,0.72390810,1.06808262

>  <FORMUL>
      FXV    C25 H27 N4 O4 1+

>  <HET>
 FXV  A 401      33

>  <HETNAM>
     FXV METHYL-3-(4'-N-OXOPYRIDYLPHENOYL)-3-METHYL-2-(M-AMIDINO
   2 FXV BENZYL)-PROPIONATE

>  <HETSYN>
     FXV FXV673

>  <Name>
FXV.pdb

>  <RI>
0

>  <Rbt.Current_Directory>
/home/malgorzata/Desktop/rDOCK_IFD/Wyniki/8_factor_Xa2/IFD

>  <Rbt.Executable>
rbdock ($Id: //depot/dev/client3/rdock/2013.1/src/exe/rbdock.cxx#4 $)

>  <Rbt.Library>
libRbt.so (2013.1, Build901 2013/11/27)

>  <Rbt.Parameter_File>
/home/malgorzata/Desktop/rDock_2013.1_src/data/scripts/dock.prm

>  <Rbt.Receptor>
cavity.prm

>  <SCORE>
-18.5726

>  <SCORE.INTER>
-15.2164

>  <SCORE.INTER.CONST>
1

>  <SCORE.INTER.POLAR>
-1.6008

>  <SCORE.INTER.REPUL>
0.047891

>  <SCORE.INTER.ROT>
9

>  <SCORE.INTER.VDW>
-24.4132

>  <SCORE.INTER.norm>
-0.461104

>  <SCORE.INTRA>
0.00524038

>  <SCORE.INTRA.DIHEDRAL>
1.32122

>  <SCORE.INTRA.DIHEDRAL.0>
8.37942

>  <SCORE.INTRA.POLAR>
-0.0146894

>  <SCORE.INTRA.POLAR.0>
0

>  <SCORE.INTRA.REPUL>
0

>  <SCORE.INTRA.REPUL.0>
0

>  <SCORE.INTRA.VDW>
-0.605427

>  <SCORE.INTRA.VDW.0>
-0.0658046

>  <SCORE.INTRA.norm>
0.0001588

>  <SCORE.RESTR>
0

>  <SCORE.RESTR.CAVITY>
0

>  <SCORE.RESTR.norm>
0

>  <SCORE.SYSTEM>
-3.36135

>  <SCORE.SYSTEM.CONST>
0

>  <SCORE.SYSTEM.DIHEDRAL>
5.94503

>  <SCORE.SYSTEM.POLAR>
-1.78657

>  <SCORE.SYSTEM.REPUL>
0.188066

>  <SCORE.SYSTEM.VDW>
-1.19986

>  <SCORE.SYSTEM.norm>
-0.101859

>  <SCORE.heavy>
33

>  <SCORE.norm>
-0.562805

$$$$
FXV.pdb
  rDOCK(R)          3D
libRbt.so/2013.1/901 2013/11/27
 38 40  0  0  0  0  0  0  0  0999 V2000
    3.9747   19.6988   10.7475 C   0  0  0  0  0  0
    4.2844   19.8069   12.1438 C   0  0  0  0  0  0
    5.4945   20.4981   12.5151 C   0  0  0  0  0  0
    6.3489   21.0506   11.5051 C   0  0  0  0  0  0
    6.0421   20.9394   10.1713 N   0  0  0  0  0  0
    4.8752   20.2748    9.8024 C   0  0  0  0  0  0
    2.2981   19.3485   15.4532 C   0  0  0  0  0  0
    1.5531   18.1212   15.1817 C   0  0  0  0  0  0
    1.7447   17.4804   13.9049 C   0  0  0  0  0  0
    2.6322   18.0205   12.9265 C   0  0  0  0  0  0
    3.3669   19.2268   13.1774 C   0  0  0  0  0  0
    3.1822   19.8699   14.4501 C   0  0  0  0  0  0
    0.6142   17.5171   16.1206 C   0  0  0  0  0  0
   -0.0874   18.3993   16.8585 N   0  0  0  0  0  0
   -1.0951   18.0068   17.8111 C   0  0  0  0  0  0
   -2.1672   17.1979   17.0490 C   0  0  0  0  0  0
   -1.6388   19.3036   18.5194 C   0  0  0  0  0  0
   -2.4273   18.9098   19.7823 C   0  0  0  0  0  0
   -1.6031   18.7258   20.8490 O   0  0  0  0  0  0
   -2.5138   20.2373   17.5665 C   0  0  0  0  0  0
   -2.4759   22.8718   17.4879 C   0  0  0  0  0  0
   -2.8471   24.1668   18.0557 C   0  0  0  0  0  0
   -3.6347   24.1885   19.2768 C   0  0  0  0  0  0
   -4.0392   22.9682   19.9064 C   0  0  0  0  0  0
   -3.6671   21.6979   19.3385 C   0  0  0  0  0  0
   -2.8860   21.6196   18.1260 C   0  0  0  0  0  0
   -2.4397   25.4225   17.4207 C   0  0  0  0  0  0
   -2.1640   25.4916   16.1152 N   0  0  0  0  0  0
   -2.3462   26.5355   18.1700 N   0  0  0  0  0  0
   -3.6012   18.7741   19.8086 O   0  0  0  0  0  0
    0.4567   16.2855   16.2187 O   0  0  0  0  0  0
   -2.0976   18.3940   22.1488 C   0  0  0  0  0  0
    6.8532   21.4632    9.2097 O   0  0  0  0  0  0
    0.0973   19.3592   16.7413 H   0  0  0  0  0  0
   -2.2285   24.6845   15.5551 H   0  0  0  0  0  0
   -2.5465   26.4987   19.1333 H   0  0  0  0  0  0
   -2.0774   27.3870   17.7553 H   0  0  0  0  0  0
    6.4808   21.2739    8.3343 H   0  0  0  0  0  0
  1  2  1  0  0  0
  1  6  2  0  0  0
  2  3  1  0  0  0
  2 11  1  0  0  0
  3  4  2  0  0  0
  4  5  1  0  0  0
  5  6  1  0  0  0
  5 33  1  0  0  0
  7  8  2  0  0  0
  7 12  1  0  0  0
  8  9  1  0  0  0
  8 13  1  0  0  0
  9 10  2  0  0  0
 10 11  1  0  0  0
 11 12  2  0  0  0
 13 14  1  0  0  0
 13 31  2  0  0  0
 14 15  1  0  0  0
 14 34  1  0  0  0
 15 16  1  0  0  0
 15 17  1  0  0  0
 17 18  1  0  0  0
 17 20  1  0  0  0
 18 19  1  0  0  0
 18 30  2  0  0  0
 19 32  1  0  0  0
 20 26  1  0  0  0
 21 22  2  0  0  0
 21 26  1  0  0  0
 22 23  1  0  0  0
 22 27  1  0  0  0
 23 24  2  0  0  0
 24 25  1  0  0  0
 25 26  2  0  0  0
 27 28  2  0  0  0
 27 29  1  0  0  0
 28 35  1  0  0  0
 29 36  1  0  0  0
 29 37  1  0  0  0
 33 38  1  0  0  0
M  END
>  <CHROM.0>
-134.15134381,10.26959758,73.68891438,-60.14087676,51.39868320,-9.26572495
66.30386265,-53.97267639

>  <CHROM.1>
34.18167494,179.12373517,35.10685006,-58.46249332,-165.10195562,84.03925678
-170.63206093,178.08219224,119.19673695,24.84403577,0.29309294,20.36932590
16.01979660,0.05947079,0.79647986,-0.25417044

>  <FORMUL>
      FXV    C25 H27 N4 O4 1+

>  <HET>
 FXV  A 401      33

>  <HETNAM>
     FXV METHYL-3-(4'-N-OXOPYRIDYLPHENOYL)-3-METHYL-2-(M-AMIDINO
   2 FXV BENZYL)-PROPIONATE

>  <HETSYN>
     FXV FXV673

>  <Name>
FXV.pdb

>  <RI>
0

>  <Rbt.Current_Directory>
/home/malgorzata/Desktop/rDOCK_IFD/Wyniki/8_factor_Xa2/IFD

>  <Rbt.Executable>
rbdock ($Id: //depot/dev/client3/rdock/2013.1/src/exe/rbdock.cxx#4 $)

>  <Rbt.Library>
libRbt.so (2013.1, Build901 2013/11/27)

>  <Rbt.Parameter_File>
/home/malgorzata/Desktop/rDock_2013.1_src/data/scripts/dock.prm

>  <Rbt.Receptor>
cavity.prm

>  <SCORE>
-24.0338

>  <SCORE.INTER>
-21.7097

>  <SCORE.INTER.CONST>
1

>  <SCORE.INTER.POLAR>
-1.88477

>  <SCORE.INTER.REPUL>
0

>  <SCORE.INTER.ROT>
9

>  <SCORE.INTER.VDW>
-29.7015

>  <SCORE.INTER.norm>
-0.657869

>  <SCORE.INTRA>
2.71057

>  <SCORE.INTRA.DIHEDRAL>
3.90036

>  <SCORE.INTRA.DIHEDRAL.0>
8.37942

>  <SCORE.INTRA.POLAR>
0

>  <SCORE.INTRA.POLAR.0>
0

>  <SCORE.INTRA.REPUL>
0

>  <SCORE.INTRA.REPUL.0>
0

>  <SCORE.INTRA.VDW>
0.760386

>  <SCORE.INTRA.VDW.0>
-0.0658046

>  <SCORE.INTRA.norm>
0.0821383

>  <SCORE.RESTR>
0

>  <SCORE.RESTR.CAVITY>
0

>  <SCORE.RESTR.norm>
0

>  <SCORE.SYSTEM>
-5.03471

>  <SCORE.SYSTEM.CONST>
0

>  <SCORE.SYSTEM.DIHEDRAL>
2.26835

>  <SCORE.SYSTEM.POLAR>
-1.90909

>  <SCORE.SYSTEM.REPUL>
0.121736

>  <SCORE.SYSTEM.VDW>
-0.28666

>  <SCORE.SYSTEM.norm>
-0.152567

>  <SCORE.heavy>
33

>  <SCORE.norm>
-0.728298

$$$$
FXV.pdb
  rDOCK(R)          3D
libRbt.so/2013.1/901 2013/11/27
 38 40  0  0  0  0  0  0  0  0999 V2000
   -3.5395   26.1508   18.2701 C   0  0  0  0  0  0
   -2.6952   25.1792   17.6372 C   0  0  0  0  0  0
   -1.4896   25.6467   16.9985 C   0  0  0  0  0  0
   -1.1644   27.0430   17.0050 C   0  0  0  0  0  0
   -1.9816   27.9637   17.6132 N   0  0  0  0  0  0
   -3.1476   27.5222   18.2338 C   0  0  0  0  0  0
   -3.3414   21.5677   18.9206 C   0  0  0  0  0  0
   -3.7953   20.8996   17.7030 C   0  0  0  0  0  0
   -3.8624   21.6744   16.4894 C   0  0  0  0  0  0
   -3.5002   23.0546   16.4663 C   0  0  0  0  0  0
   -3.0570   23.7248   17.6547 C   0  0  0  0  0  0
   -2.9855   22.9571   18.8683 C   0  0  0  0  0  0
   -4.2006   19.4993   17.6485 C   0  0  0  0  0  0
   -3.6898   18.7286   18.6284 N   0  0  0  0  0  0
   -4.0024   17.3297   18.7766 C   0  0  0  0  0  0
   -4.7114   17.1520   20.1369 C   0  0  0  0  0  0
   -2.6695   16.5056   18.6242 C   0  0  0  0  0  0
   -1.4878   17.3301   19.1674 C   0  0  0  0  0  0
   -1.7527   17.8273   20.4058 O   0  0  0  0  0  0
   -2.3859   16.0126   17.1336 C   0  0  0  0  0  0
   -3.5676   16.7483   14.8952 C   0  0  0  0  0  0
   -3.8064   17.7422   13.8501 C   0  0  0  0  0  0
   -3.1281   19.0240   13.9439 C   0  0  0  0  0  0
   -2.2484   19.3060   15.0375 C   0  0  0  0  0  0
   -2.0199   18.3190   16.0612 C   0  0  0  0  0  0
   -2.6694   17.0295   16.0166 C   0  0  0  0  0  0
   -4.7046   17.4659   12.7263 C   0  0  0  0  0  0
   -5.0376   18.4130   11.8446 N   0  0  0  0  0  0
   -5.2024   16.2256   12.5750 N   0  0  0  0  0  0
   -0.4844   17.5135   18.5700 O   0  0  0  0  0  0
   -4.9739   19.0542   16.7794 O   0  0  0  0  0  0
   -0.7884   18.5736   21.1524 C   0  0  0  0  0  0
   -1.6747   29.2913   17.6198 O   0  0  0  0  0  0
   -3.0726   19.1414   19.2750 H   0  0  0  0  0  0
   -4.6803   19.3250   11.9436 H   0  0  0  0  0  0
   -4.9653   15.5182   13.2174 H   0  0  0  0  0  0
   -5.8040   16.0251   11.8218 H   0  0  0  0  0  0
   -0.7699   29.4123   17.9481 H   0  0  0  0  0  0
  1  2  1  0  0  0
  1  6  2  0  0  0
  2  3  1  0  0  0
  2 11  1  0  0  0
  3  4  2  0  0  0
  4  5  1  0  0  0
  5  6  1  0  0  0
  5 33  1  0  0  0
  7  8  2  0  0  0
  7 12  1  0  0  0
  8  9  1  0  0  0
  8 13  1  0  0  0
  9 10  2  0  0  0
 10 11  1  0  0  0
 11 12  2  0  0  0
 13 14  1  0  0  0
 13 31  2  0  0  0
 14 15  1  0  0  0
 14 34  1  0  0  0
 15 16  1  0  0  0
 15 17  1  0  0  0
 17 18  1  0  0  0
 17 20  1  0  0  0
 18 19  1  0  0  0
 18 30  2  0  0  0
 19 32  1  0  0  0
 20 26  1  0  0  0
 21 22  2  0  0  0
 21 26  1  0  0  0
 22 23  1  0  0  0
 22 27  1  0  0  0
 23 24  2  0  0  0
 24 25  1  0  0  0
 25 26  2  0  0  0
 27 28  2  0  0  0
 27 29  1  0  0  0
 28 35  1  0  0  0
 29 36  1  0  0  0
 29 37  1  0  0  0
 33 38  1  0  0  0
M  END
>  <CHROM.0>
138.21193652,-136.58368387,-81.66239102,41.17312076,51.07917238,-171.45362100
-61.87565616,63.51352416

>  <CHROM.1>
108.69581569,-52.00343918,-23.24522727,-117.40054359,32.36587869,49.64438784
42.02349866,176.92097014,-124.44337674,172.88000772,-3.01004773,20.54839410
17.10909899,1.20770828,-1.25218712,-0.19305293

>  <FORMUL>
      FXV    C25 H27 N4 O4 1+

>  <HET>
 FXV  A 401      33

>  <HETNAM>
     FXV METHYL-3-(4'-N-OXOPYRIDYLPHENOYL)-3-METHYL-2-(M-AMIDINO
   2 FXV BENZYL)-PROPIONATE

>  <HETSYN>
     FXV FXV673

>  <Name>
FXV.pdb

>  <RI>
0

>  <Rbt.Current_Directory>
/home/malgorzata/Desktop/rDOCK_IFD/Wyniki/8_factor_Xa2/IFD

>  <Rbt.Executable>
rbdock ($Id: //depot/dev/client3/rdock/2013.1/src/exe/rbdock.cxx#4 $)

>  <Rbt.Library>
libRbt.so (2013.1, Build901 2013/11/27)

>  <Rbt.Parameter_File>
/home/malgorzata/Desktop/rDock_2013.1_src/data/scripts/dock.prm

>  <Rbt.Receptor>
cavity.prm

>  <SCORE>
-17.7866

>  <SCORE.INTER>
-7.13597

>  <SCORE.INTER.CONST>
1

>  <SCORE.INTER.POLAR>
-0.852673

>  <SCORE.INTER.REPUL>
0.0479406

>  <SCORE.INTER.ROT>
9

>  <SCORE.INTER.VDW>
-18.8766

>  <SCORE.INTER.norm>
-0.216241

>  <SCORE.INTRA>
-2.74077

>  <SCORE.INTRA.DIHEDRAL>
3.13977

>  <SCORE.INTRA.DIHEDRAL.0>
8.37942

>  <SCORE.INTRA.POLAR>
-0.201639

>  <SCORE.INTRA.POLAR.0>
0

>  <SCORE.INTRA.REPUL>
0

>  <SCORE.INTRA.REPUL.0>
0

>  <SCORE.INTRA.VDW>
-3.62508

>  <SCORE.INTRA.VDW.0>
-0.0658046

>  <SCORE.INTRA.norm>
-0.0830537

>  <SCORE.RESTR>
0

>  <SCORE.RESTR.CAVITY>
0

>  <SCORE.RESTR.norm>
0

>  <SCORE.SYSTEM>
-7.90983

>  <SCORE.SYSTEM.CONST>
0

>  <SCORE.SYSTEM.DIHEDRAL>
5.73167

>  <SCORE.SYSTEM.POLAR>
-2.84443

>  <SCORE.SYSTEM.REPUL>
0.108772

>  <SCORE.SYSTEM.VDW>
-1.64847

>  <SCORE.SYSTEM.norm>
-0.239692

>  <SCORE.heavy>
33

>  <SCORE.norm>
-0.538987

$$$$
FXV.pdb
  rDOCK(R)          3D
libRbt.so/2013.1/901 2013/11/27
 38 40  0  0  0  0  0  0  0  0999 V2000
    5.6844   20.6002   12.4292 C   0  0  0  0  0  0
    4.5169   19.8461   12.0750 C   0  0  0  0  0  0
    4.1896   19.7266   10.6755 C   0  0  0  0  0  0
    5.0166   20.3516    9.6851 C   0  0  0  0  0  0
    6.1311   21.0722   10.0369 N   0  0  0  0  0  0
    6.4565   21.1925   11.3856 C   0  0  0  0  0  0
    2.8106   19.1411   15.4954 C   0  0  0  0  0  0
    2.0131   17.9560   15.1877 C   0  0  0  0  0  0
    2.0777   17.4243   13.8495 C   0  0  0  0  0  0
    2.8918   18.0301   12.8461 C   0  0  0  0  0  0
    3.6767   19.1963   13.1325 C   0  0  0  0  0  0
    3.6187   19.7305   14.4662 C   0  0  0  0  0  0
    1.1428   17.2908   16.1511 C   0  0  0  0  0  0
    0.7395   16.0584   15.7856 N   0  0  0  0  0  0
   -0.0874   15.2197   16.6159 C   0  0  0  0  0  0
    0.6428   13.8701   16.7890 C   0  0  0  0  0  0
   -1.5092   15.1100   15.9487 C   0  0  0  0  0  0
   -1.4206   14.2335   14.6856 C   0  0  0  0  0  0
   -2.1687   13.1037   14.8078 O   0  0  0  0  0  0
   -2.1751   16.5221   15.6195 C   0  0  0  0  0  0
   -2.1377   19.0026   16.5104 C   0  0  0  0  0  0
   -2.1223   19.9560   17.6185 C   0  0  0  0  0  0
   -2.1302   19.4404   18.9773 C   0  0  0  0  0  0
   -2.1552   18.0304   19.2229 C   0  0  0  0  0  0
   -2.1695   17.1001   18.1234 C   0  0  0  0  0  0
   -2.1634   17.5591   16.7538 C   0  0  0  0  0  0
   -2.0970   21.4012   17.3803 C   0  0  0  0  0  0
   -1.8343   22.2697   18.3612 N   0  0  0  0  0  0
   -2.3390   21.8654   16.1414 N   0  0  0  0  0  0
   -0.7704   14.5098   13.7379 O   0  0  0  0  0  0
    0.8149   17.8099   17.2348 O   0  0  0  0  0  0
   -2.2110   12.1009   13.7896 C   0  0  0  0  0  0
    6.9180   21.6676    9.0971 O   0  0  0  0  0  0
    1.0237   15.7139   14.9081 H   0  0  0  0  0  0
   -1.6553   21.9434   19.2726 H   0  0  0  0  0  0
   -2.5340   21.2366   15.4094 H   0  0  0  0  0  0
   -2.3213   22.8342   15.9665 H   0  0  0  0  0  0
    6.6011   21.4291    8.2119 H   0  0  0  0  0  0
  1  2  1  0  0  0
  1  6  2  0  0  0
  2  3  1  0  0  0
  2 11  1  0  0  0
  3  4  2  0  0  0
  4  5  1  0  0  0
  5  6  1  0  0  0
  5 33  1  0  0  0
  7  8  2  0  0  0
  7 12  1  0  0  0
  8  9  1  0  0  0
  8 13  1  0  0  0
  9 10  2  0  0  0
 10 11  1  0  0  0
 11 12  2  0  0  0
 13 14  1  0  0  0
 13 31  2  0  0  0
 14 15  1  0  0  0
 14 34  1  0  0  0
 15 16  1  0  0  0
 15 17  1  0  0  0
 17 18  1  0  0  0
 17 20  1  0  0  0
 18 19  1  0  0  0
 18 30  2  0  0  0
 19 32  1  0  0  0
 20 26  1  0  0  0
 21 22  2  0  0  0
 21 26  1  0  0  0
 22 23  1  0  0  0
 22 27  1  0  0  0
 23 24  2  0  0  0
 24 25  1  0  0  0
 25 26  2  0  0  0
 27 28  2  0  0  0
 27 29  1  0  0  0
 28 35  1  0  0  0
 29 36  1  0  0  0
 29 37  1  0  0  0
 33 38  1  0  0  0
M  END
>  <CHROM.0>
-108.22320057,-46.57335797,-68.91125896,-174.72098321,51.46338828,-172.22207976
69.24617675,-51.66255362

>  <CHROM.1>
-153.39440415,-4.72292662,-165.28785022,-125.41084500,71.77113150,116.66256333
-48.46748516,-177.51328423,151.11589323,-167.36847718,0.89700490,18.09275959
14.82738203,0.19308158,0.74471231,0.31527510

>  <FORMUL>
      FXV    C25 H27 N4 O4 1+

>  <HET>
 FXV  A 401      33

>  <HETNAM>
     FXV METHYL-3-(4'-N-OXOPYRIDYLPHENOYL)-3-METHYL-2-(M-AMIDINO
   2 FXV BENZYL)-PROPIONATE

>  <HETSYN>
     FXV FXV673

>  <Name>
FXV.pdb

>  <RI>
0

>  <Rbt.Current_Directory>
/home/malgorzata/Desktop/rDOCK_IFD/Wyniki/8_factor_Xa2/IFD

>  <Rbt.Executable>
rbdock ($Id: //depot/dev/client3/rdock/2013.1/src/exe/rbdock.cxx#4 $)

>  <Rbt.Library>
libRbt.so (2013.1, Build901 2013/11/27)

>  <Rbt.Parameter_File>
/home/malgorzata/Desktop/rDock_2013.1_src/data/scripts/dock.prm

>  <Rbt.Receptor>
cavity.prm

>  <SCORE>
-24.2378

>  <SCORE.INTER>
-18.1823

>  <SCORE.INTER.CONST>
1

>  <SCORE.INTER.POLAR>
-2.66914

>  <SCORE.INTER.REPUL>
0

>  <SCORE.INTER.ROT>
9

>  <SCORE.INTER.VDW>
-23.5072

>  <SCORE.INTER.norm>
-0.550978

>  <SCORE.INTRA>
-0.282409

>  <SCORE.INTRA.DIHEDRAL>
0.581585

>  <SCORE.INTRA.DIHEDRAL.0>
8.37942

>  <SCORE.INTRA.POLAR>
0

>  <SCORE.INTRA.POLAR.0>
0

>  <SCORE.INTRA.REPUL>
0

>  <SCORE.INTRA.REPUL.0>
0

>  <SCORE.INTRA.VDW>
-0.573202

>  <SCORE.INTRA.VDW.0>
-0.0658046

>  <SCORE.INTRA.norm>
-0.00855786

>  <SCORE.RESTR>
0

>  <SCORE.RESTR.CAVITY>
0

>  <SCORE.RESTR.norm>
0

>  <SCORE.SYSTEM>
-5.77308

>  <SCORE.SYSTEM.CONST>
0

>  <SCORE.SYSTEM.DIHEDRAL>
5.0871

>  <SCORE.SYSTEM.POLAR>
-1.9365

>  <SCORE.SYSTEM.REPUL>
0.00937711

>  <SCORE.SYSTEM.VDW>
-1.77943

>  <SCORE.SYSTEM.norm>
-0.174942

>  <SCORE.heavy>
33

>  <SCORE.norm>
-0.734477

$$$$
FXV.pdb
  rDOCK(R)          3D
libRbt.so/2013.1/901 2013/11/27
 38 40  0  0  0  0  0  0  0  0999 V2000
    3.4685   19.3138   11.2230 C   0  0  0  0  0  0
    4.0081   19.2744   12.5513 C   0  0  0  0  0  0
    5.3569   19.7466   12.7461 C   0  0  0  0  0  0
    6.1185   20.2341   11.6335 C   0  0  0  0  0  0
    5.5910   20.2656   10.3661 N   0  0  0  0  0  0
    4.2891   19.8129   10.1678 C   0  0  0  0  0  0
    1.9813   19.1898   15.8668 C   0  0  0  0  0  0
    1.5488   17.7949   15.9118 C   0  0  0  0  0  0
    1.9557   16.9240   14.8377 C   0  0  0  0  0  0
    2.7560   17.3998   13.7561 C   0  0  0  0  0  0
    3.1844   18.7676   13.6964 C   0  0  0  0  0  0
    2.7840   19.6411   14.7660 C   0  0  0  0  0  0
    0.7153   17.2373   16.9713 C   0  0  0  0  0  0
    0.2712   18.1385   17.8689 N   0  0  0  0  0  0
   -0.5997   17.7976   18.9652 C   0  0  0  0  0  0
   -1.9181   18.5784   18.7735 C   0  0  0  0  0  0
    0.1532   18.1114   20.3119 C   0  0  0  0  0  0
    1.4792   17.3296   20.3562 C   0  0  0  0  0  0
    2.2878   17.7733   21.3564 O   0  0  0  0  0  0
   -0.7205   17.8305   21.6170 C   0  0  0  0  0  0
   -2.3008   19.9246   21.8726 C   0  0  0  0  0  0
   -2.7480   21.0965   22.6235 C   0  0  0  0  0  0
   -2.0979   21.4000   23.8873 C   0  0  0  0  0  0
   -1.0454   20.5673   24.3854 C   0  0  0  0  0  0
   -0.6124   19.4155   23.6367 C   0  0  0  0  0  0
   -1.2250   19.0683   22.3756 C   0  0  0  0  0  0
   -3.8242   21.9562   22.1248 C   0  0  0  0  0  0
   -4.1840   23.0727   22.7645 N   0  0  0  0  0  0
   -4.4628   21.6157   20.9911 N   0  0  0  0  0  0
    1.7565   16.4623   19.6025 O   0  0  0  0  0  0
    0.4190   16.0290   17.0311 O   0  0  0  0  0  0
    3.5958   17.2393   21.5758 C   0  0  0  0  0  0
    6.3136   20.7279    9.3073 O   0  0  0  0  0  0
    0.5556   19.0760   17.7710 H   0  0  0  0  0  0
   -3.7249   23.3337   23.5954 H   0  0  0  0  0  0
   -4.2078   20.7956   20.5098 H   0  0  0  0  0  0
   -5.1853   22.1866   20.6426 H   0  0  0  0  0  0
    7.0380   21.2866    9.6295 H   0  0  0  0  0  0
  1  2  1  0  0  0
  1  6  2  0  0  0
  2  3  1  0  0  0
  2 11  1  0  0  0
  3  4  2  0  0  0
  4  5  1  0  0  0
  5  6  1  0  0  0
  5 33  1  0  0  0
  7  8  2  0  0  0
  7 12  1  0  0  0
  8  9  1  0  0  0
  8 13  1  0  0  0
  9 10  2  0  0  0
 10 11  1  0  0  0
 11 12  2  0  0  0
 13 14  1  0  0  0
 13 31  2  0  0  0
 14 15  1  0  0  0
 14 34  1  0  0  0
 15 16  1  0  0  0
 15 17  1  0  0  0
 17 18  1  0  0  0
 17 20  1  0  0  0
 18 19  1  0  0  0
 18 30  2  0  0  0
 19 32  1  0  0  0
 20 26  1  0  0  0
 21 22  2  0  0  0
 21 26  1  0  0  0
 22 23  1  0  0  0
 22 27  1  0  0  0
 23 24  2  0  0  0
 24 25  1  0  0  0
 25 26  2  0  0  0
 27 28  2  0  0  0
 27 29  1  0  0  0
 28 35  1  0  0  0
 29 36  1  0  0  0
 29 37  1  0  0  0
 33 38  1  0  0  0
M  END
>  <CHROM.0>
-139.74295978,7.67429386,69.48456764,44.06269525,50.89430129,-171.99400879
-60.60216180,172.95864227

>  <CHROM.1>
64.91407630,-20.41299029,5.21326161,-117.76550731,-57.24706244,167.30964000
-107.56430787,-177.76454652,72.91626479,-175.91872671,1.05640389,19.07502349
17.74861192,0.73971921,0.79090458,-0.97129274

>  <FORMUL>
      FXV    C25 H27 N4 O4 1+

>  <HET>
 FXV  A 401      33

>  <HETNAM>
     FXV METHYL-3-(4'-N-OXOPYRIDYLPHENOYL)-3-METHYL-2-(M-AMIDINO
   2 FXV BENZYL)-PROPIONATE

>  <HETSYN>
     FXV FXV673

>  <Name>
FXV.pdb

>  <RI>
0

>  <Rbt.Current_Directory>
/home/malgorzata/Desktop/rDOCK_IFD/Wyniki/8_factor_Xa2/IFD

>  <Rbt.Executable>
rbdock ($Id: //depot/dev/client3/rdock/2013.1/src/exe/rbdock.cxx#4 $)

>  <Rbt.Library>
libRbt.so (2013.1, Build901 2013/11/27)

>  <Rbt.Parameter_File>
/home/malgorzata/Desktop/rDock_2013.1_src/data/scripts/dock.prm

>  <Rbt.Receptor>
cavity.prm

>  <SCORE>
-21.7266

>  <SCORE.INTER>
-12.5178

>  <SCORE.INTER.CONST>
1

>  <SCORE.INTER.POLAR>
-0.733435

>  <SCORE.INTER.REPUL>
0

>  <SCORE.INTER.ROT>
9

>  <SCORE.INTER.VDW>
-24.4241

>  <SCORE.INTER.norm>
-0.379326

>  <SCORE.INTRA>
-0.788618

>  <SCORE.INTRA.DIHEDRAL>
0.469686

>  <SCORE.INTRA.DIHEDRAL.0>
8.37942

>  <SCORE.INTRA.POLAR>
0

>  <SCORE.INTRA.POLAR.0>
0

>  <SCORE.INTRA.REPUL>
0

>  <SCORE.INTRA.REPUL.0>
0

>  <SCORE.INTRA.VDW>
-1.02346

>  <SCORE.INTRA.VDW.0>
-0.0658046

>  <SCORE.INTRA.norm>
-0.0238975

>  <SCORE.RESTR>
0

>  <SCORE.RESTR.CAVITY>
0

>  <SCORE.RESTR.norm>
0

>  <SCORE.SYSTEM>
-8.42024

>  <SCORE.SYSTEM.CONST>
0

>  <SCORE.SYSTEM.DIHEDRAL>
3.29018

>  <SCORE.SYSTEM.POLAR>
-2.75838

>  <SCORE.SYSTEM.REPUL>
0.103244

>  <SCORE.SYSTEM.VDW>
-1.20305

>  <SCORE.SYSTEM.norm>
-0.255159

>  <SCORE.heavy>
33

>  <SCORE.norm>
-0.658382

$$$$
