FXV.pdb
  rDOCK(R)          3D
libRbt.so/2013.1/901 2013/11/27
 38 40  0  0  0  0  0  0  0  0999 V2000
   -1.6542   25.8095   14.4214 C   0  0  0  0  0  0
   -1.5298   25.6352   15.8396 C   0  0  0  0  0  0
   -0.5744   26.4582   16.5395 C   0  0  0  0  0  0
    0.2183   27.4131   15.8215 C   0  0  0  0  0  0
    0.0909   27.5697   14.4633 N   0  0  0  0  0  0
   -0.8298   26.7805   13.7785 C   0  0  0  0  0  0
   -4.5800   23.9958   17.6048 C   0  0  0  0  0  0
   -4.0499   22.6771   17.9440 C   0  0  0  0  0  0
   -2.6871   22.3803   17.5805 C   0  0  0  0  0  0
   -1.8707   23.3381   16.9074 C   0  0  0  0  0  0
   -2.3789   24.6349   16.5642 C   0  0  0  0  0  0
   -3.7370   24.9383   16.9261 C   0  0  0  0  0  0
   -4.8252   21.6382   18.6133 C   0  0  0  0  0  0
   -4.1464   20.9467   19.5494 N   0  0  0  0  0  0
   -4.7434   19.9099   20.3526 C   0  0  0  0  0  0
   -5.0285   20.5069   21.7479 C   0  0  0  0  0  0
   -3.7737   18.6695   20.3607 C   0  0  0  0  0  0
   -3.6271   18.1195   18.9298 C   0  0  0  0  0  0
   -3.0487   19.0303   18.1011 O   0  0  0  0  0  0
   -4.2120   17.5179   21.3742 C   0  0  0  0  0  0
   -2.1887   15.8928   20.9126 C   0  0  0  0  0  0
   -1.1470   14.9889   21.3974 C   0  0  0  0  0  0
   -1.0339   14.7653   22.8289 C   0  0  0  0  0  0
   -1.9217   15.4186   23.7422 C   0  0  0  0  0  0
   -2.9450   16.3066   23.2532 C   0  0  0  0  0  0
   -3.1004   16.5645   21.8405 C   0  0  0  0  0  0
   -0.2320   14.3148   20.4731 C   0  0  0  0  0  0
    0.4678   13.2371   20.8395 N   0  0  0  0  0  0
   -0.0971   14.7894   19.2219 N   0  0  0  0  0  0
   -3.9873   17.0433   18.5990 O   0  0  0  0  0  0
   -6.0244   21.4207   18.3569 O   0  0  0  0  0  0
   -2.8505   18.7786   16.7076 C   0  0  0  0  0  0
    0.8439   28.4761   13.7791 O   0  0  0  0  0  0
   -3.1958   21.1602   19.6916 H   0  0  0  0  0  0
    0.3785   12.8792   21.7522 H   0  0  0  0  0  0
   -0.6068   15.5827   18.9387 H   0  0  0  0  0  0
    0.5113   14.3436   18.5891 H   0  0  0  0  0  0
    0.6441   28.4132   12.8320 H   0  0  0  0  0  0
  1  2  1  0  0  0
  1  6  2  0  0  0
  2  3  1  0  0  0
  2 11  1  0  0  0
  3  4  2  0  0  0
  4  5  1  0  0  0
  5  6  1  0  0  0
  5 33  1  0  0  0
  7  8  2  0  0  0
  7 12  1  0  0  0
  8  9  1  0  0  0
  8 13  1  0  0  0
  9 10  2  0  0  0
 10 11  1  0  0  0
 11 12  2  0  0  0
 13 14  1  0  0  0
 13 31  2  0  0  0
 14 15  1  0  0  0
 14 34  1  0  0  0
 15 16  1  0  0  0
 15 17  1  0  0  0
 17 18  1  0  0  0
 17 20  1  0  0  0
 18 19  1  0  0  0
 18 30  2  0  0  0
 19 32  1  0  0  0
 20 26  1  0  0  0
 21 22  2  0  0  0
 21 26  1  0  0  0
 22 23  1  0  0  0
 22 27  1  0  0  0
 23 24  2  0  0  0
 24 25  1  0  0  0
 25 26  2  0  0  0
 27 28  2  0  0  0
 27 29  1  0  0  0
 28 35  1  0  0  0
 29 36  1  0  0  0
 29 37  1  0  0  0
 33 38  1  0  0  0
M  END
>  <CHROM.0>
-168.45617106,-2.42459965,17.54745812,59.20372677,69.30777016,55.25850746
-60.88573057,175.26260435

>  <CHROM.1>
98.82184341,177.39426029,-139.63175501,-102.36964869,-63.01431471,63.43754904
-157.34523649,-177.49793417,-50.20858719,-161.59509181,-2.45281269,20.60157060
18.60461003,-1.49644831,-0.38769883,2.66035023

>  <FORMUL>
      FXV    C25 H27 N4 O4 1+

>  <HET>
 FXV  A 401      33

>  <HETNAM>
     FXV METHYL-3-(4'-N-OXOPYRIDYLPHENOYL)-3-METHYL-2-(M-AMIDINO
   2 FXV BENZYL)-PROPIONATE

>  <HETSYN>
     FXV FXV673

>  <Name>
FXV.pdb

>  <RI>
3.30511e+07

>  <Rbt.Current_Directory>
/home/malgorzata/Desktop/rDOCK_IFD/Wyniki/8_factor_Xa2/IFD

>  <Rbt.Executable>
rbdock ($Id: //depot/dev/client3/rdock/2013.1/src/exe/rbdock.cxx#4 $)

>  <Rbt.Library>
libRbt.so (2013.1, Build901 2013/11/27)

>  <Rbt.Parameter_File>
/home/malgorzata/Desktop/rDock_2013.1_src/data/scripts/dock.prm

>  <Rbt.Receptor>
cavity.prm

>  <SCORE>
-32.6947

>  <SCORE.INTER>
-9.48508

>  <SCORE.INTER.CONST>
1

>  <SCORE.INTER.POLAR>
-1.27127

>  <SCORE.INTER.REPUL>
0.0045889

>  <SCORE.INTER.ROT>
9

>  <SCORE.INTER.VDW>
-19.5857

>  <SCORE.INTER.norm>
-0.287427

>  <SCORE.INTRA>
-0.188409

>  <SCORE.INTRA.DIHEDRAL>
3.3702

>  <SCORE.INTRA.DIHEDRAL.0>
8.37942

>  <SCORE.INTRA.POLAR>
0

>  <SCORE.INTRA.POLAR.0>
0

>  <SCORE.INTRA.REPUL>
0

>  <SCORE.INTRA.REPUL.0>
0

>  <SCORE.INTRA.VDW>
-1.87351

>  <SCORE.INTRA.VDW.0>
-0.0658046

>  <SCORE.INTRA.norm>
-0.00570936

>  <SCORE.RESTR>
0

>  <SCORE.RESTR.CAVITY>
0

>  <SCORE.RESTR.norm>
0

>  <SCORE.SYSTEM>
-23.0212

>  <SCORE.SYSTEM.CONST>
0

>  <SCORE.SYSTEM.DIHEDRAL>
5.51307

>  <SCORE.SYSTEM.POLAR>
-7.21122

>  <SCORE.SYSTEM.REPUL>
0.0394011

>  <SCORE.SYSTEM.VDW>
-1.4566

>  <SCORE.SYSTEM.norm>
-0.697613

>  <SCORE.heavy>
33

>  <SCORE.norm>
-0.990749

$$$$
FXV.pdb
  rDOCK(R)          3D
libRbt.so/2013.1/901 2013/11/27
 38 40  0  0  0  0  0  0  0  0999 V2000
   -2.0115   27.5921   15.8888 C   0  0  0  0  0  0
   -2.8578   26.7868   16.7209 C   0  0  0  0  0  0
   -3.6439   27.4534   17.7298 C   0  0  0  0  0  0
   -3.5657   28.8769   17.8817 C   0  0  0  0  0  0
   -2.7505   29.6369   17.0796 N   0  0  0  0  0  0
   -1.9884   29.0028   16.1016 C   0  0  0  0  0  0
   -1.8048   23.1317   15.9215 C   0  0  0  0  0  0
   -3.0404   22.4024   16.1980 C   0  0  0  0  0  0
   -4.1893   23.1559   16.6340 C   0  0  0  0  0  0
   -4.1326   24.5727   16.7959 C   0  0  0  0  0  0
   -2.9254   25.3014   16.5324 C   0  0  0  0  0  0
   -1.7763   24.5561   16.0948 C   0  0  0  0  0  0
   -3.1733   20.9549   16.0750 C   0  0  0  0  0  0
   -2.0504   20.3191   15.6878 N   0  0  0  0  0  0
   -1.9615   18.8874   15.5494 C   0  0  0  0  0  0
   -2.3996   18.2613   16.8913 C   0  0  0  0  0  0
   -0.4948   18.5226   15.1085 C   0  0  0  0  0  0
   -0.3684   16.9962   14.9485 C   0  0  0  0  0  0
   -1.1295   16.5369   13.9185 O   0  0  0  0  0  0
    0.6303   19.0904   16.0870 C   0  0  0  0  0  0
    3.2056   18.6643   16.4528 C   0  0  0  0  0  0
    4.5699   18.5939   15.9321 C   0  0  0  0  0  0
    4.7891   18.8689   14.5220 C   0  0  0  0  0  0
    3.6920   19.1983   13.6634 C   0  0  0  0  0  0
    2.3521   19.2655   14.1875 C   0  0  0  0  0  0
    2.0787   19.0005   15.5808 C   0  0  0  0  0  0
    5.7008   18.2575   16.8004 C   0  0  0  0  0  0
    6.9262   18.0525   16.3089 N   0  0  0  0  0  0
    5.5015   18.1578   18.1268 N   0  0  0  0  0  0
    0.2992   16.3151   15.6468 O   0  0  0  0  0  0
   -4.2329   20.3509   16.3279 O   0  0  0  0  0  0
   -1.1656   15.1556   13.5513 C   0  0  0  0  0  0
   -2.6743   30.9898   17.2229 O   0  0  0  0  0  0
   -1.2514   20.8590   15.4896 H   0  0  0  0  0  0
    7.0860   18.1223   15.3400 H   0  0  0  0  0  0
    4.6036   18.3063   18.5023 H   0  0  0  0  0  0
    6.2536   17.9362   18.7223 H   0  0  0  0  0  0
   -3.2315   31.2681   17.9666 H   0  0  0  0  0  0
  1  2  1  0  0  0
  1  6  2  0  0  0
  2  3  1  0  0  0
  2 11  1  0  0  0
  3  4  2  0  0  0
  4  5  1  0  0  0
  5  6  1  0  0  0
  5 33  1  0  0  0
  7  8  2  0  0  0
  7 12  1  0  0  0
  8  9  1  0  0  0
  8 13  1  0  0  0
  9 10  2  0  0  0
 10 11  1  0  0  0
 11 12  2  0  0  0
 13 14  1  0  0  0
 13 31  2  0  0  0
 14 15  1  0  0  0
 14 34  1  0  0  0
 15 16  1  0  0  0
 15 17  1  0  0  0
 17 18  1  0  0  0
 17 20  1  0  0  0
 18 19  1  0  0  0
 18 30  2  0  0  0
 19 32  1  0  0  0
 20 26  1  0  0  0
 21 22  2  0  0  0
 21 26  1  0  0  0
 22 23  1  0  0  0
 22 27  1  0  0  0
 23 24  2  0  0  0
 24 25  1  0  0  0
 25 26  2  0  0  0
 27 28  2  0  0  0
 27 29  1  0  0  0
 28 35  1  0  0  0
 29 36  1  0  0  0
 29 37  1  0  0  0
 33 38  1  0  0  0
M  END
>  <CHROM.0>
118.25302738,-107.63228983,15.84453237,48.11776912,178.94990373,-71.72654654
-177.40108995,-37.51090466

>  <CHROM.1>
-148.02463526,2.44311648,0.39944300,-54.75373395,-179.86327849,66.16925888
-168.90875417,178.88219261,-141.12099362,172.80324362,-0.44890673,21.55674355
16.01265271,-2.07868868,0.06758948,-2.96574067

>  <FORMUL>
      FXV    C25 H27 N4 O4 1+

>  <HET>
 FXV  A 401      33

>  <HETNAM>
     FXV METHYL-3-(4'-N-OXOPYRIDYLPHENOYL)-3-METHYL-2-(M-AMIDINO
   2 FXV BENZYL)-PROPIONATE

>  <HETSYN>
     FXV FXV673

>  <Name>
FXV.pdb

>  <RI>
3.30511e+07

>  <Rbt.Current_Directory>
/home/malgorzata/Desktop/rDOCK_IFD/Wyniki/8_factor_Xa2/IFD

>  <Rbt.Executable>
rbdock ($Id: //depot/dev/client3/rdock/2013.1/src/exe/rbdock.cxx#4 $)

>  <Rbt.Library>
libRbt.so (2013.1, Build901 2013/11/27)

>  <Rbt.Parameter_File>
/home/malgorzata/Desktop/rDock_2013.1_src/data/scripts/dock.prm

>  <Rbt.Receptor>
cavity.prm

>  <SCORE>
-39.4971

>  <SCORE.INTER>
-28.996

>  <SCORE.INTER.CONST>
1

>  <SCORE.INTER.POLAR>
-1.81468

>  <SCORE.INTER.REPUL>
0

>  <SCORE.INTER.ROT>
9

>  <SCORE.INTER.VDW>
-37.2261

>  <SCORE.INTER.norm>
-0.878668

>  <SCORE.INTRA>
0.265079

>  <SCORE.INTRA.DIHEDRAL>
-4.16271

>  <SCORE.INTRA.DIHEDRAL.0>
8.37942

>  <SCORE.INTRA.POLAR>
0

>  <SCORE.INTRA.POLAR.0>
0

>  <SCORE.INTRA.REPUL>
0

>  <SCORE.INTRA.REPUL.0>
0

>  <SCORE.INTRA.VDW>
2.34643

>  <SCORE.INTRA.VDW.0>
-0.0658046

>  <SCORE.INTRA.norm>
0.00803268

>  <SCORE.RESTR>
0

>  <SCORE.RESTR.CAVITY>
0

>  <SCORE.RESTR.norm>
0

>  <SCORE.SYSTEM>
-10.7661

>  <SCORE.SYSTEM.CONST>
0

>  <SCORE.SYSTEM.DIHEDRAL>
8.45333

>  <SCORE.SYSTEM.POLAR>
-5.55956

>  <SCORE.SYSTEM.REPUL>
0.33715

>  <SCORE.SYSTEM.VDW>
2.22397

>  <SCORE.SYSTEM.norm>
-0.326246

>  <SCORE.heavy>
33

>  <SCORE.norm>
-1.19688

$$$$
FXV.pdb
  rDOCK(R)          3D
libRbt.so/2013.1/901 2013/11/27
 38 40  0  0  0  0  0  0  0  0999 V2000
    3.3492   19.8722   11.4282 C   0  0  0  0  0  0
    3.7229   19.5721   12.7800 C   0  0  0  0  0  0
    5.0522   19.9320   13.2085 C   0  0  0  0  0  0
    5.9574   20.5670   12.2959 C   0  0  0  0  0  0
    5.5882   20.8480   11.0035 N   0  0  0  0  0  0
    4.3064   20.5054   10.5804 C   0  0  0  0  0  0
    1.9169   18.5097   16.0537 C   0  0  0  0  0  0
    0.8399   17.6686   15.5361 C   0  0  0  0  0  0
    0.7566   17.4754   14.1101 C   0  0  0  0  0  0
    1.6918   18.0841   13.2204 C   0  0  0  0  0  0
    2.7515   18.9156   13.7139 C   0  0  0  0  0  0
    2.8419   19.1106   15.1356 C   0  0  0  0  0  0
   -0.1651   17.0278   16.3770 C   0  0  0  0  0  0
   -1.2995   16.6870   15.7350 N   0  0  0  0  0  0
   -2.3955   16.0058   16.3765 C   0  0  0  0  0  0
   -2.5190   14.6091   15.7296 C   0  0  0  0  0  0
   -3.6828   16.9023   16.2416 C   0  0  0  0  0  0
   -3.8370   17.3678   14.7818 C   0  0  0  0  0  0
   -5.1350   17.3205   14.3767 O   0  0  0  0  0  0
   -3.7092   18.1435   17.2437 C   0  0  0  0  0  0
   -2.4643   17.0025   19.2677 C   0  0  0  0  0  0
   -2.3637   16.7073   20.6960 C   0  0  0  0  0  0
   -3.3834   17.2352   21.5868 C   0  0  0  0  0  0
   -4.4597   18.0286   21.0756 C   0  0  0  0  0  0
   -4.5492   18.3126   19.6664 C   0  0  0  0  0  0
   -3.5621   17.8132   18.7376 C   0  0  0  0  0  0
   -1.2670   15.8971   21.2315 C   0  0  0  0  0  0
   -1.2690   15.4600   22.4941 N   0  0  0  0  0  0
   -0.2343   15.5805   20.4300 N   0  0  0  0  0  0
   -2.9327   17.7094   14.1017 O   0  0  0  0  0  0
    0.0170   16.7941   17.5868 O   0  0  0  0  0  0
   -5.5416   17.7194   13.0653 C   0  0  0  0  0  0
    6.4473   21.4508   10.1344 O   0  0  0  0  0  0
   -1.3838   16.9144   14.7808 H   0  0  0  0  0  0
   -2.0187   15.6844   23.0915 H   0  0  0  0  0  0
   -0.2201   15.8960   19.4975 H   0  0  0  0  0  0
    0.5075   15.0332   20.7758 H   0  0  0  0  0  0
    6.1242   21.3341    9.2273 H   0  0  0  0  0  0
  1  2  1  0  0  0
  1  6  2  0  0  0
  2  3  1  0  0  0
  2 11  1  0  0  0
  3  4  2  0  0  0
  4  5  1  0  0  0
  5  6  1  0  0  0
  5 33  1  0  0  0
  7  8  2  0  0  0
  7 12  1  0  0  0
  8  9  1  0  0  0
  8 13  1  0  0  0
  9 10  2  0  0  0
 10 11  1  0  0  0
 11 12  2  0  0  0
 13 14  1  0  0  0
 13 31  2  0  0  0
 14 15  1  0  0  0
 14 34  1  0  0  0
 15 16  1  0  0  0
 15 17  1  0  0  0
 17 18  1  0  0  0
 17 20  1  0  0  0
 18 19  1  0  0  0
 18 30  2  0  0  0
 19 32  1  0  0  0
 20 26  1  0  0  0
 21 22  2  0  0  0
 21 26  1  0  0  0
 22 23  1  0  0  0
 22 27  1  0  0  0
 23 24  2  0  0  0
 24 25  1  0  0  0
 25 26  2  0  0  0
 27 28  2  0  0  0
 27 29  1  0  0  0
 28 35  1  0  0  0
 29 36  1  0  0  0
 29 37  1  0  0  0
 33 38  1  0  0  0
M  END
>  <CHROM.0>
104.95710263,5.95805001,15.53386406,41.85254429,70.54205383,52.30407066,6.69350142
-36.91659177

>  <CHROM.1>
26.26045280,163.48846787,158.58164375,-114.47431658,48.37185699,139.12673843
-55.78740832,179.18068003,52.81037539,-170.10899723,-0.30188115,17.89168152
15.88720593,0.79007534,-0.20504546,-1.34253426

>  <FORMUL>
      FXV    C25 H27 N4 O4 1+

>  <HET>
 FXV  A 401      33

>  <HETNAM>
     FXV METHYL-3-(4'-N-OXOPYRIDYLPHENOYL)-3-METHYL-2-(M-AMIDINO
   2 FXV BENZYL)-PROPIONATE

>  <HETSYN>
     FXV FXV673

>  <Name>
FXV.pdb

>  <RI>
3.30511e+07

>  <Rbt.Current_Directory>
/home/malgorzata/Desktop/rDOCK_IFD/Wyniki/8_factor_Xa2/IFD

>  <Rbt.Executable>
rbdock ($Id: //depot/dev/client3/rdock/2013.1/src/exe/rbdock.cxx#4 $)

>  <Rbt.Library>
libRbt.so (2013.1, Build901 2013/11/27)

>  <Rbt.Parameter_File>
/home/malgorzata/Desktop/rDock_2013.1_src/data/scripts/dock.prm

>  <Rbt.Receptor>
cavity.prm

>  <SCORE>
-38.8358

>  <SCORE.INTER>
-16.0755

>  <SCORE.INTER.CONST>
1

>  <SCORE.INTER.POLAR>
-1.65156

>  <SCORE.INTER.REPUL>
0

>  <SCORE.INTER.ROT>
9

>  <SCORE.INTER.VDW>
-24.8601

>  <SCORE.INTER.norm>
-0.487135

>  <SCORE.INTRA>
-4.21784

>  <SCORE.INTRA.DIHEDRAL>
0.126508

>  <SCORE.INTRA.DIHEDRAL.0>
8.37942

>  <SCORE.INTRA.POLAR>
-1.10966

>  <SCORE.INTRA.POLAR.0>
0

>  <SCORE.INTRA.REPUL>
0

>  <SCORE.INTRA.REPUL.0>
0

>  <SCORE.INTRA.VDW>
-0.508254

>  <SCORE.INTRA.VDW.0>
-0.0658046

>  <SCORE.INTRA.norm>
-0.127813

>  <SCORE.RESTR>
0

>  <SCORE.RESTR.CAVITY>
0

>  <SCORE.RESTR.norm>
0

>  <SCORE.SYSTEM>
-18.5425

>  <SCORE.SYSTEM.CONST>
0

>  <SCORE.SYSTEM.DIHEDRAL>
4.46251

>  <SCORE.SYSTEM.POLAR>
-6.95574

>  <SCORE.SYSTEM.REPUL>
0.0467704

>  <SCORE.SYSTEM.VDW>
2.64193

>  <SCORE.SYSTEM.norm>
-0.561894

>  <SCORE.heavy>
33

>  <SCORE.norm>
-1.17684

$$$$
FXV.pdb
  rDOCK(R)          3D
libRbt.so/2013.1/901 2013/11/27
 38 40  0  0  0  0  0  0  0  0999 V2000
   -1.7743   26.7385   15.2811 C   0  0  0  0  0  0
   -2.6134   25.8883   16.0750 C   0  0  0  0  0  0
   -3.5372   26.5146   16.9885 C   0  0  0  0  0  0
   -3.5978   27.9436   17.0867 C   0  0  0  0  0  0
   -2.7882   28.7469   16.3221 N   0  0  0  0  0  0
   -1.8936   28.1519   15.4361 C   0  0  0  0  0  0
   -1.6752   22.1819   16.7752 C   0  0  0  0  0  0
   -2.4036   21.4887   15.7151 C   0  0  0  0  0  0
   -3.1780   22.2822   14.7940 C   0  0  0  0  0  0
   -3.2400   23.7036   14.9056 C   0  0  0  0  0  0
   -2.5337   24.3973   15.9437 C   0  0  0  0  0  0
   -1.7573   23.6120   16.8645 C   0  0  0  0  0  0
   -2.4063   20.0398   15.5457 C   0  0  0  0  0  0
   -2.3225   19.3404   16.6941 N   0  0  0  0  0  0
   -2.3536   17.9006   16.7457 C   0  0  0  0  0  0
   -3.6547   17.4879   17.4676 C   0  0  0  0  0  0
   -1.0342   17.4014   17.4451 C   0  0  0  0  0  0
    0.1798   17.7440   16.5617 C   0  0  0  0  0  0
    0.1011   17.1364   15.3469 O   0  0  0  0  0  0
   -1.0516   15.8500   17.8170 C   0  0  0  0  0  0
   -1.9428   14.8924   15.5286 C   0  0  0  0  0  0
   -2.8640   14.0401   14.7789 C   0  0  0  0  0  0
   -3.8444   13.2612   15.5166 C   0  0  0  0  0  0
   -3.9031   13.3264   16.9454 C   0  0  0  0  0  0
   -2.9908   14.1701   17.6737 C   0  0  0  0  0  0
   -1.9968   14.9641   16.9899 C   0  0  0  0  0  0
   -2.8138   13.9645   13.3168 C   0  0  0  0  0  0
   -1.8586   14.5808   12.6145 N   0  0  0  0  0  0
   -3.7499   13.2519   12.6649 N   0  0  0  0  0  0
    1.0705   18.4389   16.9092 O   0  0  0  0  0  0
   -2.5003   19.4910   14.4315 O   0  0  0  0  0  0
    1.1355   17.2508   14.3665 C   0  0  0  0  0  0
   -2.8438   30.1053   16.4145 O   0  0  0  0  0  0
   -2.2357   19.8373   17.5396 H   0  0  0  0  0  0
   -1.1672   15.1056   13.0790 H   0  0  0  0  0  0
   -4.4594   12.7928   13.1700 H   0  0  0  0  0  0
   -3.7257   13.1893   11.6827 H   0  0  0  0  0  0
   -3.6020   30.3612   16.9627 H   0  0  0  0  0  0
  1  2  1  0  0  0
  1  6  2  0  0  0
  2  3  1  0  0  0
  2 11  1  0  0  0
  3  4  2  0  0  0
  4  5  1  0  0  0
  5  6  1  0  0  0
  5 33  1  0  0  0
  7  8  2  0  0  0
  7 12  1  0  0  0
  8  9  1  0  0  0
  8 13  1  0  0  0
  9 10  2  0  0  0
 10 11  1  0  0  0
 11 12  2  0  0  0
 13 14  1  0  0  0
 13 31  2  0  0  0
 14 15  1  0  0  0
 14 34  1  0  0  0
 15 16  1  0  0  0
 15 17  1  0  0  0
 17 18  1  0  0  0
 17 20  1  0  0  0
 18 19  1  0  0  0
 18 30  2  0  0  0
 19 32  1  0  0  0
 20 26  1  0  0  0
 21 22  2  0  0  0
 21 26  1  0  0  0
 22 23  1  0  0  0
 22 27  1  0  0  0
 23 24  2  0  0  0
 24 25  1  0  0  0
 25 26  2  0  0  0
 27 28  2  0  0  0
 27 29  1  0  0  0
 28 35  1  0  0  0
 29 36  1  0  0  0
 29 37  1  0  0  0
 33 38  1  0  0  0
M  END
>  <CHROM.0>
110.00311520,6.61991340,-112.72703048,45.64111330,68.80891679,55.64833654
15.18031371,177.00650460

>  <CHROM.1>
-82.95609224,-8.85407409,32.80510032,-113.60574706,-65.89581848,-60.86829173
24.11391019,-177.26671343,55.65634749,5.62098237,-2.17417096,19.89509284
15.85767505,1.61505697,-0.79808339,0.09531505

>  <FORMUL>
      FXV    C25 H27 N4 O4 1+

>  <HET>
 FXV  A 401      33

>  <HETNAM>
     FXV METHYL-3-(4'-N-OXOPYRIDYLPHENOYL)-3-METHYL-2-(M-AMIDINO
   2 FXV BENZYL)-PROPIONATE

>  <HETSYN>
     FXV FXV673

>  <Name>
FXV.pdb

>  <RI>
3.30511e+07

>  <Rbt.Current_Directory>
/home/malgorzata/Desktop/rDOCK_IFD/Wyniki/8_factor_Xa2/IFD

>  <Rbt.Executable>
rbdock ($Id: //depot/dev/client3/rdock/2013.1/src/exe/rbdock.cxx#4 $)

>  <Rbt.Library>
libRbt.so (2013.1, Build901 2013/11/27)

>  <Rbt.Parameter_File>
/home/malgorzata/Desktop/rDock_2013.1_src/data/scripts/dock.prm

>  <Rbt.Receptor>
cavity.prm

>  <SCORE>
-22.5274

>  <SCORE.INTER>
-11.3064

>  <SCORE.INTER.CONST>
1

>  <SCORE.INTER.POLAR>
-0.94409

>  <SCORE.INTER.REPUL>
0.0053218

>  <SCORE.INTER.ROT>
9

>  <SCORE.INTER.VDW>
-22.5231

>  <SCORE.INTER.norm>
-0.342619

>  <SCORE.INTRA>
-0.619937

>  <SCORE.INTRA.DIHEDRAL>
2.43197

>  <SCORE.INTRA.DIHEDRAL.0>
8.37942

>  <SCORE.INTRA.POLAR>
0

>  <SCORE.INTRA.POLAR.0>
0

>  <SCORE.INTRA.REPUL>
0

>  <SCORE.INTRA.REPUL.0>
0

>  <SCORE.INTRA.VDW>
-1.83592

>  <SCORE.INTRA.VDW.0>
-0.0658046

>  <SCORE.INTRA.norm>
-0.018786

>  <SCORE.RESTR>
0

>  <SCORE.RESTR.CAVITY>
0

>  <SCORE.RESTR.norm>
0

>  <SCORE.SYSTEM>
-10.601

>  <SCORE.SYSTEM.CONST>
0

>  <SCORE.SYSTEM.DIHEDRAL>
2.1092

>  <SCORE.SYSTEM.POLAR>
-7.01714

>  <SCORE.SYSTEM.REPUL>
0.0384565

>  <SCORE.SYSTEM.VDW>
12.0104

>  <SCORE.SYSTEM.norm>
-0.321243

>  <SCORE.heavy>
33

>  <SCORE.norm>
-0.682648

$$$$
FXV.pdb
  rDOCK(R)          3D
libRbt.so/2013.1/901 2013/11/27
 38 40  0  0  0  0  0  0  0  0999 V2000
   -1.2745   25.7756   14.3882 C   0  0  0  0  0  0
   -1.7733   25.7364   15.7324 C   0  0  0  0  0  0
   -1.5928   26.9082   16.5537 C   0  0  0  0  0  0
   -0.9309   28.0649   16.0251 C   0  0  0  0  0  0
   -0.4565   28.0896   14.7367 N   0  0  0  0  0  0
   -0.6268   26.9636   13.9353 C   0  0  0  0  0  0
   -2.3872   22.1082   16.9840 C   0  0  0  0  0  0
   -3.8122   22.1448   17.3051 C   0  0  0  0  0  0
   -4.5252   23.3780   17.0847 C   0  0  0  0  0  0
   -3.8686   24.5358   16.5699 C   0  0  0  0  0  0
   -2.4694   24.5159   16.2543 C   0  0  0  0  0  0
   -1.7526   23.2882   16.4695 C   0  0  0  0  0  0
   -4.5505   21.0115   17.8517 C   0  0  0  0  0  0
   -3.8279   19.8821   17.9837 N   0  0  0  0  0  0
   -4.3598   18.6655   18.5438 C   0  0  0  0  0  0
   -3.7277   18.4798   19.9403 C   0  0  0  0  0  0
   -4.0721   17.4897   17.5370 C   0  0  0  0  0  0
   -4.6678   17.8326   16.1589 C   0  0  0  0  0  0
   -3.9865   18.8454   15.5580 O   0  0  0  0  0  0
   -4.5877   16.0680   18.0454 C   0  0  0  0  0  0
   -3.1496   14.7553   16.2687 C   0  0  0  0  0  0
   -2.9635   13.6118   15.3771 C   0  0  0  0  0  0
   -4.0009   12.5952   15.3271 C   0  0  0  0  0  0
   -5.1764   12.7115   16.1357 C   0  0  0  0  0  0
   -5.3495   13.8429   17.0101 C   0  0  0  0  0  0
   -4.3491   14.8810   17.0987 C   0  0  0  0  0  0
   -1.7649   13.4811   14.5450 C   0  0  0  0  0  0
   -0.8380   14.4421   14.4938 N   0  0  0  0  0  0
   -1.5904   12.3628   13.8184 N   0  0  0  0  0  0
   -5.6082   17.2870   15.6950 O   0  0  0  0  0  0
   -5.7469   21.0857   18.1899 O   0  0  0  0  0  0
   -4.3656   19.3713   14.2836 C   0  0  0  0  0  0
    0.1736   29.1877   14.2327 O   0  0  0  0  0  0
   -2.8905   19.8882   17.6828 H   0  0  0  0  0  0
   -0.9532   15.2657   15.0207 H   0  0  0  0  0  0
   -2.2656   11.6469   13.8468 H   0  0  0  0  0  0
   -0.7875   12.2602   13.2579 H   0  0  0  0  0  0
   -0.2876   29.9887   14.5271 H   0  0  0  0  0  0
  1  2  1  0  0  0
  1  6  2  0  0  0
  2  3  1  0  0  0
  2 11  1  0  0  0
  3  4  2  0  0  0
  4  5  1  0  0  0
  5  6  1  0  0  0
  5 33  1  0  0  0
  7  8  2  0  0  0
  7 12  1  0  0  0
  8  9  1  0  0  0
  8 13  1  0  0  0
  9 10  2  0  0  0
 10 11  1  0  0  0
 11 12  2  0  0  0
 13 14  1  0  0  0
 13 31  2  0  0  0
 14 15  1  0  0  0
 14 34  1  0  0  0
 15 16  1  0  0  0
 15 17  1  0  0  0
 17 18  1  0  0  0
 17 20  1  0  0  0
 18 19  1  0  0  0
 18 30  2  0  0  0
 19 32  1  0  0  0
 20 26  1  0  0  0
 21 22  2  0  0  0
 21 26  1  0  0  0
 22 23  1  0  0  0
 22 27  1  0  0  0
 23 24  2  0  0  0
 24 25  1  0  0  0
 25 26  2  0  0  0
 27 28  2  0  0  0
 27 29  1  0  0  0
 28 35  1  0  0  0
 29 36  1  0  0  0
 29 37  1  0  0  0
 33 38  1  0  0  0
M  END
>  <CHROM.0>
-158.92575917,7.49077011,16.30768218,50.67820555,68.33031705,-72.90525831
-173.53615925,178.39826911

>  <CHROM.1>
-112.43367612,-40.92726239,-3.10931645,-107.78274466,-56.12772125,69.61996896
179.37481961,-178.38385341,36.13148084,-4.77936704,-3.14131369,19.99866789
16.22343771,-1.31112648,-0.81006162,-2.98750864

>  <FORMUL>
      FXV    C25 H27 N4 O4 1+

>  <HET>
 FXV  A 401      33

>  <HETNAM>
     FXV METHYL-3-(4'-N-OXOPYRIDYLPHENOYL)-3-METHYL-2-(M-AMIDINO
   2 FXV BENZYL)-PROPIONATE

>  <HETSYN>
     FXV FXV673

>  <Name>
FXV.pdb

>  <RI>
3.30511e+07

>  <Rbt.Current_Directory>
/home/malgorzata/Desktop/rDOCK_IFD/Wyniki/8_factor_Xa2/IFD

>  <Rbt.Executable>
rbdock ($Id: //depot/dev/client3/rdock/2013.1/src/exe/rbdock.cxx#4 $)

>  <Rbt.Library>
libRbt.so (2013.1, Build901 2013/11/27)

>  <Rbt.Parameter_File>
/home/malgorzata/Desktop/rDock_2013.1_src/data/scripts/dock.prm

>  <Rbt.Receptor>
cavity.prm

>  <SCORE>
-33.4455

>  <SCORE.INTER>
-9.61223

>  <SCORE.INTER.CONST>
1

>  <SCORE.INTER.POLAR>
-1.85413

>  <SCORE.INTER.REPUL>
0

>  <SCORE.INTER.ROT>
9

>  <SCORE.INTER.VDW>
-17.7082

>  <SCORE.INTER.norm>
-0.29128

>  <SCORE.INTRA>
-2.91292

>  <SCORE.INTRA.DIHEDRAL>
-2.76341

>  <SCORE.INTRA.DIHEDRAL.0>
8.37942

>  <SCORE.INTRA.POLAR>
0

>  <SCORE.INTRA.POLAR.0>
0

>  <SCORE.INTRA.REPUL>
0

>  <SCORE.INTRA.REPUL.0>
0

>  <SCORE.INTRA.VDW>
-1.53122

>  <SCORE.INTRA.VDW.0>
-0.0658046

>  <SCORE.INTRA.norm>
-0.0882703

>  <SCORE.RESTR>
0.022397

>  <SCORE.RESTR.CAVITY>
0.022397

>  <SCORE.RESTR.norm>
0.000678698

>  <SCORE.SYSTEM>
-20.9427

>  <SCORE.SYSTEM.CONST>
0

>  <SCORE.SYSTEM.DIHEDRAL>
2.48393

>  <SCORE.SYSTEM.POLAR>
-6.86355

>  <SCORE.SYSTEM.REPUL>
0.325409

>  <SCORE.SYSTEM.VDW>
-0.475656

>  <SCORE.SYSTEM.norm>
-0.634627

>  <SCORE.heavy>
33

>  <SCORE.norm>
-1.0135

$$$$
FXV.pdb
  rDOCK(R)          3D
libRbt.so/2013.1/901 2013/11/27
 38 40  0  0  0  0  0  0  0  0999 V2000
   -1.1918   28.0511   16.5089 C   0  0  0  0  0  0
   -2.3262   27.3420   17.0260 C   0  0  0  0  0  0
   -3.3511   28.1048   17.6953 C   0  0  0  0  0  0
   -3.2201   29.5260   17.8312 C   0  0  0  0  0  0
   -2.1284   30.1933   17.3329 N   0  0  0  0  0  0
   -1.1339   29.4660   16.6839 C   0  0  0  0  0  0
   -1.5580   23.6987   15.9107 C   0  0  0  0  0  0
   -2.6344   22.9577   16.5644 C   0  0  0  0  0  0
   -3.5885   23.6998   17.3498 C   0  0  0  0  0  0
   -3.4934   25.1165   17.4930 C   0  0  0  0  0  0
   -2.4397   25.8567   16.8607 C   0  0  0  0  0  0
   -1.4859   25.1228   16.0738 C   0  0  0  0  0  0
   -2.7891   21.5095   16.4823 C   0  0  0  0  0  0
   -3.9788   21.0468   16.9134 N   0  0  0  0  0  0
   -4.3451   19.6537   16.8745 C   0  0  0  0  0  0
   -5.8321   19.5738   16.4659 C   0  0  0  0  0  0
   -4.0199   19.0168   18.2772 C   0  0  0  0  0  0
   -4.2396   17.4938   18.2161 C   0  0  0  0  0  0
   -3.3822   16.8999   17.3424 O   0  0  0  0  0  0
   -4.8397   19.6651   19.4827 C   0  0  0  0  0  0
   -3.0535   19.5458   21.4176 C   0  0  0  0  0  0
   -2.6677   19.1454   22.7696 C   0  0  0  0  0  0
   -3.6461   18.4571   23.5949 C   0  0  0  0  0  0
   -4.9584   18.1809   23.0942 C   0  0  0  0  0  0
   -5.3274   18.5794   21.7602 C   0  0  0  0  0  0
   -4.3938   19.2668   20.8987 C   0  0  0  0  0  0
   -1.3282   19.4227   23.2937 C   0  0  0  0  0  0
   -0.5925   20.4402   22.8368 N   0  0  0  0  0  0
   -0.8282   18.6362   24.2634 N   0  0  0  0  0  0
   -5.0620   16.9225   18.8441 O   0  0  0  0  0  0
   -1.9021   20.7609   16.0304 O   0  0  0  0  0  0
   -3.3736   15.4875   17.1204 C   0  0  0  0  0  0
   -2.0018   31.5439   17.4617 O   0  0  0  0  0  0
   -4.6298   21.6922   17.2725 H   0  0  0  0  0  0
   -0.9464   21.0238   22.1272 H   0  0  0  0  0  0
   -1.3595   17.8829   24.6092 H   0  0  0  0  0  0
    0.0692   18.8137   24.6275 H   0  0  0  0  0  0
   -2.7980   31.9047   17.8823 H   0  0  0  0  0  0
  1  2  1  0  0  0
  1  6  2  0  0  0
  2  3  1  0  0  0
  2 11  1  0  0  0
  3  4  2  0  0  0
  4  5  1  0  0  0
  5  6  1  0  0  0
  5 33  1  0  0  0
  7  8  2  0  0  0
  7 12  1  0  0  0
  8  9  1  0  0  0
  8 13  1  0  0  0
  9 10  2  0  0  0
 10 11  1  0  0  0
 11 12  2  0  0  0
 13 14  1  0  0  0
 13 31  2  0  0  0
 14 15  1  0  0  0
 14 34  1  0  0  0
 15 16  1  0  0  0
 15 17  1  0  0  0
 17 18  1  0  0  0
 17 20  1  0  0  0
 18 19  1  0  0  0
 18 30  2  0  0  0
 19 32  1  0  0  0
 20 26  1  0  0  0
 21 22  2  0  0  0
 21 26  1  0  0  0
 22 23  1  0  0  0
 22 27  1  0  0  0
 23 24  2  0  0  0
 24 25  1  0  0  0
 25 26  2  0  0  0
 27 28  2  0  0  0
 27 29  1  0  0  0
 28 35  1  0  0  0
 29 36  1  0  0  0
 29 37  1  0  0  0
 33 38  1  0  0  0
M  END
>  <CHROM.0>
-168.63032117,-7.10992129,15.56329161,58.03811250,175.83815593,53.32965200
11.90763659,173.71605870

>  <CHROM.1>
173.32030259,-3.66075393,-166.98794797,-140.79566244,-173.18761305,63.68054971
-169.56311266,179.08848934,61.04404247,26.04876128,-3.06149939,22.09620826
18.67529679,-1.08367328,1.29109755,2.35102905

>  <FORMUL>
      FXV    C25 H27 N4 O4 1+

>  <HET>
 FXV  A 401      33

>  <HETNAM>
     FXV METHYL-3-(4'-N-OXOPYRIDYLPHENOYL)-3-METHYL-2-(M-AMIDINO
   2 FXV BENZYL)-PROPIONATE

>  <HETSYN>
     FXV FXV673

>  <Name>
FXV.pdb

>  <RI>
3.30511e+07

>  <Rbt.Current_Directory>
/home/malgorzata/Desktop/rDOCK_IFD/Wyniki/8_factor_Xa2/IFD

>  <Rbt.Executable>
rbdock ($Id: //depot/dev/client3/rdock/2013.1/src/exe/rbdock.cxx#4 $)

>  <Rbt.Library>
libRbt.so (2013.1, Build901 2013/11/27)

>  <Rbt.Parameter_File>
/home/malgorzata/Desktop/rDock_2013.1_src/data/scripts/dock.prm

>  <Rbt.Receptor>
cavity.prm

>  <SCORE>
-31.9373

>  <SCORE.INTER>
-11.2845

>  <SCORE.INTER.CONST>
1

>  <SCORE.INTER.POLAR>
-0.914299

>  <SCORE.INTER.REPUL>
0

>  <SCORE.INTER.ROT>
9

>  <SCORE.INTER.VDW>
-22.5759

>  <SCORE.INTER.norm>
-0.341955

>  <SCORE.INTRA>
0.525336

>  <SCORE.INTRA.DIHEDRAL>
-1.28574

>  <SCORE.INTRA.DIHEDRAL.0>
8.37942

>  <SCORE.INTRA.POLAR>
0

>  <SCORE.INTRA.POLAR.0>
0

>  <SCORE.INTRA.REPUL>
0

>  <SCORE.INTRA.REPUL.0>
0

>  <SCORE.INTRA.VDW>
1.16821

>  <SCORE.INTRA.VDW.0>
-0.0658046

>  <SCORE.INTRA.norm>
0.0159193

>  <SCORE.RESTR>
0.0728879

>  <SCORE.RESTR.CAVITY>
0.0728879

>  <SCORE.RESTR.norm>
0.00220873

>  <SCORE.SYSTEM>
-21.251

>  <SCORE.SYSTEM.CONST>
0

>  <SCORE.SYSTEM.DIHEDRAL>
1.97744

>  <SCORE.SYSTEM.POLAR>
-6.31855

>  <SCORE.SYSTEM.REPUL>
0.0441705

>  <SCORE.SYSTEM.VDW>
-0.97751

>  <SCORE.SYSTEM.norm>
-0.64397

>  <SCORE.heavy>
33

>  <SCORE.norm>
-0.967797

$$$$
FXV.pdb
  rDOCK(R)          3D
libRbt.so/2013.1/901 2013/11/27
 38 40  0  0  0  0  0  0  0  0999 V2000
   -0.7760   26.0705   16.0316 C   0  0  0  0  0  0
   -1.3011   25.2757   14.9594 C   0  0  0  0  0  0
   -1.2054   25.8017   13.6199 C   0  0  0  0  0  0
   -0.6029   27.0820   13.3887 C   0  0  0  0  0  0
   -0.1049   27.8341   14.4240 N   0  0  0  0  0  0
   -0.1915   27.3345   15.7210 C   0  0  0  0  0  0
   -2.0421   21.8389   16.6169 C   0  0  0  0  0  0
   -3.1382   21.3427   15.7879 C   0  0  0  0  0  0
   -3.5892   22.1678   14.6954 C   0  0  0  0  0  0
   -2.9912   23.4347   14.4232 C   0  0  0  0  0  0
   -1.9173   23.9366   15.2311 C   0  0  0  0  0  0
   -1.4610   23.1174   16.3210 C   0  0  0  0  0  0
   -3.8134   20.0692   16.0124 C   0  0  0  0  0  0
   -3.2863   19.3212   17.0013 N   0  0  0  0  0  0
   -3.8334   18.0517   17.4082 C   0  0  0  0  0  0
   -4.0156   18.0923   18.9411 C   0  0  0  0  0  0
   -2.8748   16.9124   16.8962 C   0  0  0  0  0  0
   -3.4886   15.5374   17.2192 C   0  0  0  0  0  0
   -3.4138   15.2566   18.5484 O   0  0  0  0  0  0
   -1.3871   17.0219   17.4620 C   0  0  0  0  0  0
    0.5173   17.8305   15.8286 C   0  0  0  0  0  0
    1.5820   17.5356   14.8713 C   0  0  0  0  0  0
    1.8586   16.1460   14.5479 C   0  0  0  0  0  0
    1.1061   15.0911   15.1564 C   0  0  0  0  0  0
    0.0587   15.3934   16.0978 C   0  0  0  0  0  0
   -0.2566   16.7570   16.4550 C   0  0  0  0  0  0
    2.3595   18.6060   14.2422 C   0  0  0  0  0  0
    2.0977   19.8949   14.4776 N   0  0  0  0  0  0
    3.3661   18.2830   13.4107 N   0  0  0  0  0  0
   -3.9528   14.8171   16.4051 O   0  0  0  0  0  0
   -4.8105   19.7097   15.3582 O   0  0  0  0  0  0
   -3.9074   14.0334   19.1003 C   0  0  0  0  0  0
    0.4674   29.0515   14.2064 O   0  0  0  0  0  0
   -2.4882   19.6585   17.4688 H   0  0  0  0  0  0
    1.3638   20.1453   15.0842 H   0  0  0  0  0  0
    3.5697   17.3371   13.2284 H   0  0  0  0  0  0
    3.8993   18.9923   12.9843 H   0  0  0  0  0  0
    0.7144   29.1302   13.2717 H   0  0  0  0  0  0
  1  2  1  0  0  0
  1  6  2  0  0  0
  2  3  1  0  0  0
  2 11  1  0  0  0
  3  4  2  0  0  0
  4  5  1  0  0  0
  5  6  1  0  0  0
  5 33  1  0  0  0
  7  8  2  0  0  0
  7 12  1  0  0  0
  8  9  1  0  0  0
  8 13  1  0  0  0
  9 10  2  0  0  0
 10 11  1  0  0  0
 11 12  2  0  0  0
 13 14  1  0  0  0
 13 31  2  0  0  0
 14 15  1  0  0  0
 14 34  1  0  0  0
 15 16  1  0  0  0
 15 17  1  0  0  0
 17 18  1  0  0  0
 17 20  1  0  0  0
 18 19  1  0  0  0
 18 30  2  0  0  0
 19 32  1  0  0  0
 20 26  1  0  0  0
 21 22  2  0  0  0
 21 26  1  0  0  0
 22 23  1  0  0  0
 22 27  1  0  0  0
 23 24  2  0  0  0
 24 25  1  0  0  0
 25 26  2  0  0  0
 27 28  2  0  0  0
 27 29  1  0  0  0
 28 35  1  0  0  0
 29 36  1  0  0  0
 29 37  1  0  0  0
 33 38  1  0  0  0
M  END
>  <CHROM.0>
92.79680301,-7.23095678,17.13553745,52.83908141,71.21921636,175.80025723
8.10067411,-35.77558940

>  <CHROM.1>
148.11933993,-18.39340651,-4.46766337,-129.04460241,-175.58963141,-72.87786221
-137.73347582,-179.55501964,101.62069049,-2.49574802,-1.38129099,20.23874996
15.80349865,1.43948230,0.42059567,-0.16317649

>  <FORMUL>
      FXV    C25 H27 N4 O4 1+

>  <HET>
 FXV  A 401      33

>  <HETNAM>
     FXV METHYL-3-(4'-N-OXOPYRIDYLPHENOYL)-3-METHYL-2-(M-AMIDINO
   2 FXV BENZYL)-PROPIONATE

>  <HETSYN>
     FXV FXV673

>  <Name>
FXV.pdb

>  <RI>
3.30511e+07

>  <Rbt.Current_Directory>
/home/malgorzata/Desktop/rDOCK_IFD/Wyniki/8_factor_Xa2/IFD

>  <Rbt.Executable>
rbdock ($Id: //depot/dev/client3/rdock/2013.1/src/exe/rbdock.cxx#4 $)

>  <Rbt.Library>
libRbt.so (2013.1, Build901 2013/11/27)

>  <Rbt.Parameter_File>
/home/malgorzata/Desktop/rDock_2013.1_src/data/scripts/dock.prm

>  <Rbt.Receptor>
cavity.prm

>  <SCORE>
-31.4462

>  <SCORE.INTER>
-14.8797

>  <SCORE.INTER.CONST>
1

>  <SCORE.INTER.POLAR>
-0.480005

>  <SCORE.INTER.REPUL>
0

>  <SCORE.INTER.ROT>
9

>  <SCORE.INTER.VDW>
-27.6477

>  <SCORE.INTER.norm>
-0.450899

>  <SCORE.INTRA>
0.194653

>  <SCORE.INTRA.DIHEDRAL>
-0.11146

>  <SCORE.INTRA.DIHEDRAL.0>
8.37942

>  <SCORE.INTRA.POLAR>
0

>  <SCORE.INTRA.POLAR.0>
0

>  <SCORE.INTRA.REPUL>
0

>  <SCORE.INTRA.REPUL.0>
0

>  <SCORE.INTRA.VDW>
0.250383

>  <SCORE.INTRA.VDW.0>
-0.0658046

>  <SCORE.INTRA.norm>
0.00589858

>  <SCORE.RESTR>
0

>  <SCORE.RESTR.CAVITY>
0

>  <SCORE.RESTR.norm>
0

>  <SCORE.SYSTEM>
-16.7612

>  <SCORE.SYSTEM.CONST>
0

>  <SCORE.SYSTEM.DIHEDRAL>
4.58728

>  <SCORE.SYSTEM.POLAR>
-6.49818

>  <SCORE.SYSTEM.REPUL>
0.137621

>  <SCORE.SYSTEM.VDW>
2.35084

>  <SCORE.SYSTEM.norm>
-0.507916

>  <SCORE.heavy>
33

>  <SCORE.norm>
-0.952916

$$$$
FXV.pdb
  rDOCK(R)          3D
libRbt.so/2013.1/901 2013/11/27
 38 40  0  0  0  0  0  0  0  0999 V2000
   -1.9411   27.7998   16.9395 C   0  0  0  0  0  0
   -3.1989   27.3820   17.4877 C   0  0  0  0  0  0
   -4.0629   28.3946   18.0428 C   0  0  0  0  0  0
   -3.6578   29.7699   18.0393 C   0  0  0  0  0  0
   -2.4503   30.1572   17.5126 N   0  0  0  0  0  0
   -1.6094   29.1871   16.9731 C   0  0  0  0  0  0
   -5.1561   24.1007   18.2022 C   0  0  0  0  0  0
   -4.4053   23.1313   17.4075 C   0  0  0  0  0  0
   -3.2632   23.6026   16.6652 C   0  0  0  0  0  0
   -2.8690   24.9739   16.6967 C   0  0  0  0  0  0
   -3.5990   25.9376   17.4689 C   0  0  0  0  0  0
   -4.7380   25.4736   18.2137 C   0  0  0  0  0  0
   -4.7549   21.7185   17.3083 C   0  0  0  0  0  0
   -3.7028   20.8885   17.1689 N   0  0  0  0  0  0
   -3.8322   19.4550   17.0975 C   0  0  0  0  0  0
   -3.8499   18.9159   18.5444 C   0  0  0  0  0  0
   -2.6595   18.8956   16.2083 C   0  0  0  0  0  0
   -3.2394   18.2464   14.9379 C   0  0  0  0  0  0
   -3.5520   19.1791   13.9981 O   0  0  0  0  0  0
   -1.6952   17.8844   16.9785 C   0  0  0  0  0  0
    0.5114   18.2866   15.5938 C   0  0  0  0  0  0
    1.6596   17.7687   14.8518 C   0  0  0  0  0  0
    1.8071   16.3291   14.7182 C   0  0  0  0  0  0
    0.8499   15.4399   15.3033 C   0  0  0  0  0  0
   -0.2780   15.9613   16.0317 C   0  0  0  0  0  0
   -0.4716   17.3833   16.1950 C   0  0  0  0  0  0
    2.6461   18.6683   14.2488 C   0  0  0  0  0  0
    2.6711   19.9738   14.5323 N   0  0  0  0  0  0
    3.5534   18.1662   13.3922 N   0  0  0  0  0  0
   -3.4012   17.0825   14.8097 O   0  0  0  0  0  0
   -5.9294   21.3083   17.3691 O   0  0  0  0  0  0
   -3.5101   20.5822   14.2700 C   0  0  0  0  0  0
   -2.0632   31.4637   17.5090 O   0  0  0  0  0  0
   -2.8014   21.2805   17.1130 H   0  0  0  0  0  0
    2.0129   20.3543   15.1577 H   0  0  0  0  0  0
    3.5462   17.2061   13.1745 H   0  0  0  0  0  0
    4.2246   18.7588   12.9828 H   0  0  0  0  0  0
   -2.6927   31.9889   18.0276 H   0  0  0  0  0  0
  1  2  1  0  0  0
  1  6  2  0  0  0
  2  3  1  0  0  0
  2 11  1  0  0  0
  3  4  2  0  0  0
  4  5  1  0  0  0
  5  6  1  0  0  0
  5 33  1  0  0  0
  7  8  2  0  0  0
  7 12  1  0  0  0
  8  9  1  0  0  0
  8 13  1  0  0  0
  9 10  2  0  0  0
 10 11  1  0  0  0
 11 12  2  0  0  0
 13 14  1  0  0  0
 13 31  2  0  0  0
 14 15  1  0  0  0
 14 34  1  0  0  0
 15 16  1  0  0  0
 15 17  1  0  0  0
 17 18  1  0  0  0
 17 20  1  0  0  0
 18 19  1  0  0  0
 18 30  2  0  0  0
 19 32  1  0  0  0
 20 26  1  0  0  0
 21 22  2  0  0  0
 21 26  1  0  0  0
 22 23  1  0  0  0
 22 27  1  0  0  0
 23 24  2  0  0  0
 24 25  1  0  0  0
 25 26  2  0  0  0
 27 28  2  0  0  0
 27 29  1  0  0  0
 28 35  1  0  0  0
 29 36  1  0  0  0
 29 37  1  0  0  0
 33 38  1  0  0  0
M  END
>  <CHROM.0>
-175.84249679,2.41406203,14.81267949,50.78668401,70.15570615,176.70626614
9.28576077,-36.68129138

>  <CHROM.1>
-11.59004383,8.00058253,-147.13224646,-85.95629919,-115.75298020,80.29655955
-175.67946979,-8.17084719,55.83044372,11.37791250,-2.13648078,21.93177522
16.36088807,-1.85987692,-0.32057440,-3.01570612

>  <FORMUL>
      FXV    C25 H27 N4 O4 1+

>  <HET>
 FXV  A 401      33

>  <HETNAM>
     FXV METHYL-3-(4'-N-OXOPYRIDYLPHENOYL)-3-METHYL-2-(M-AMIDINO
   2 FXV BENZYL)-PROPIONATE

>  <HETSYN>
     FXV FXV673

>  <Name>
FXV.pdb

>  <RI>
3.30511e+07

>  <Rbt.Current_Directory>
/home/malgorzata/Desktop/rDOCK_IFD/Wyniki/8_factor_Xa2/IFD

>  <Rbt.Executable>
rbdock ($Id: //depot/dev/client3/rdock/2013.1/src/exe/rbdock.cxx#4 $)

>  <Rbt.Library>
libRbt.so (2013.1, Build901 2013/11/27)

>  <Rbt.Parameter_File>
/home/malgorzata/Desktop/rDock_2013.1_src/data/scripts/dock.prm

>  <Rbt.Receptor>
cavity.prm

>  <SCORE>
-25.4294

>  <SCORE.INTER>
-18.448

>  <SCORE.INTER.CONST>
1

>  <SCORE.INTER.POLAR>
-1.19081

>  <SCORE.INTER.REPUL>
0

>  <SCORE.INTER.ROT>
9

>  <SCORE.INTER.VDW>
-28.7992

>  <SCORE.INTER.norm>
-0.559029

>  <SCORE.INTRA>
9.71346

>  <SCORE.INTRA.DIHEDRAL>
6.00936

>  <SCORE.INTRA.DIHEDRAL.0>
8.37942

>  <SCORE.INTRA.POLAR>
0

>  <SCORE.INTRA.POLAR.0>
0

>  <SCORE.INTRA.REPUL>
0

>  <SCORE.INTRA.REPUL.0>
0

>  <SCORE.INTRA.VDW>
6.70878

>  <SCORE.INTRA.VDW.0>
-0.0658046

>  <SCORE.INTRA.norm>
0.294347

>  <SCORE.RESTR>
0

>  <SCORE.RESTR.CAVITY>
0

>  <SCORE.RESTR.norm>
0

>  <SCORE.SYSTEM>
-16.6949

>  <SCORE.SYSTEM.CONST>
0

>  <SCORE.SYSTEM.DIHEDRAL>
4.25126

>  <SCORE.SYSTEM.POLAR>
-6.53055

>  <SCORE.SYSTEM.REPUL>
0.143011

>  <SCORE.SYSTEM.VDW>
2.66824

>  <SCORE.SYSTEM.norm>
-0.505907

>  <SCORE.heavy>
33

>  <SCORE.norm>
-0.770589

$$$$
FXV.pdb
  rDOCK(R)          3D
libRbt.so/2013.1/901 2013/11/27
 38 40  0  0  0  0  0  0  0  0999 V2000
   -5.5433   23.4829   18.6148 C   0  0  0  0  0  0
   -4.3601   23.8119   17.8739 C   0  0  0  0  0  0
   -3.9852   25.2017   17.7835 C   0  0  0  0  0  0
   -4.7848   26.2076   18.4192 C   0  0  0  0  0  0
   -5.9163   25.8800   19.1246 N   0  0  0  0  0  0
   -6.2862   24.5407   19.2189 C   0  0  0  0  0  0
   -1.3216   21.9119   16.3689 C   0  0  0  0  0  0
   -1.9264   20.6334   16.0019 C   0  0  0  0  0  0
   -3.3325   20.4497   16.2604 C   0  0  0  0  0  0
   -4.1202   21.4787   16.8582 C   0  0  0  0  0  0
   -3.5392   22.7372   17.2277 C   0  0  0  0  0  0
   -2.1375   22.9279   16.9704 C   0  0  0  0  0  0
   -1.1863   19.5269   15.4054 C   0  0  0  0  0  0
    0.1466   19.5761   15.5956 N   0  0  0  0  0  0
    1.0495   18.5567   15.1241 C   0  0  0  0  0  0
    1.2713   18.7925   13.6142 C   0  0  0  0  0  0
    0.4383   17.1502   15.4808 C   0  0  0  0  0  0
    0.1411   17.0844   16.9904 C   0  0  0  0  0  0
   -1.0604   16.4962   17.2380 O   0  0  0  0  0  0
    1.3455   15.9205   15.0221 C   0  0  0  0  0  0
    0.6479   14.1173   16.8137 C   0  0  0  0  0  0
    0.1759   12.7753   17.1506 C   0  0  0  0  0  0
   -0.0922   11.8425   16.0690 C   0  0  0  0  0  0
    0.0996   12.2318   14.7049 C   0  0  0  0  0  0
    0.5657   13.5564   14.3846 C   0  0  0  0  0  0
    0.8463   14.5227   15.4209 C   0  0  0  0  0  0
   -0.0248   12.3650   18.5425 C   0  0  0  0  0  0
    0.0899   13.2315   19.5531 N   0  0  0  0  0  0
   -0.3378   11.0845   18.8096 N   0  0  0  0  0  0
    0.8669   17.5068   17.8223 O   0  0  0  0  0  0
   -1.7419   18.5988   14.7879 O   0  0  0  0  0  0
   -1.5638   16.3142   18.5638 C   0  0  0  0  0  0
   -6.6780   26.8347   19.7289 O   0  0  0  0  0  0
    0.5222   20.3462   16.0805 H   0  0  0  0  0  0
    0.3185   14.1718   19.3718 H   0  0  0  0  0  0
   -0.4254   10.4355   18.0744 H   0  0  0  0  0  0
   -0.4793   10.7961   19.7403 H   0  0  0  0  0  0
   -6.3090   27.7113   19.5382 H   0  0  0  0  0  0
  1  2  1  0  0  0
  1  6  2  0  0  0
  2  3  1  0  0  0
  2 11  1  0  0  0
  3  4  2  0  0  0
  4  5  1  0  0  0
  5  6  1  0  0  0
  5 33  1  0  0  0
  7  8  2  0  0  0
  7 12  1  0  0  0
  8  9  1  0  0  0
  8 13  1  0  0  0
  9 10  2  0  0  0
 10 11  1  0  0  0
 11 12  2  0  0  0
 13 14  1  0  0  0
 13 31  2  0  0  0
 14 15  1  0  0  0
 14 34  1  0  0  0
 15 16  1  0  0  0
 15 17  1  0  0  0
 17 18  1  0  0  0
 17 20  1  0  0  0
 18 19  1  0  0  0
 18 30  2  0  0  0
 19 32  1  0  0  0
 20 26  1  0  0  0
 21 22  2  0  0  0
 21 26  1  0  0  0
 22 23  1  0  0  0
 22 27  1  0  0  0
 23 24  2  0  0  0
 24 25  1  0  0  0
 25 26  2  0  0  0
 27 28  2  0  0  0
 27 29  1  0  0  0
 28 35  1  0  0  0
 29 36  1  0  0  0
 29 37  1  0  0  0
 33 38  1  0  0  0
M  END
>  <CHROM.0>
141.57930914,19.37634524,16.84393967,55.23458400,69.57727818,54.68384238
3.27092428,176.93770130

>  <CHROM.1>
25.00328533,2.37354208,20.26564820,78.73587063,-54.69230954,137.59997983
176.25685005,179.88072151,-59.99244419,6.51945824,-1.58746233,18.71314010
16.93137387,2.27582491,0.85918540,-0.42609323

>  <FORMUL>
      FXV    C25 H27 N4 O4 1+

>  <HET>
 FXV  A 401      33

>  <HETNAM>
     FXV METHYL-3-(4'-N-OXOPYRIDYLPHENOYL)-3-METHYL-2-(M-AMIDINO
   2 FXV BENZYL)-PROPIONATE

>  <HETSYN>
     FXV FXV673

>  <Name>
FXV.pdb

>  <RI>
3.30511e+07

>  <Rbt.Current_Directory>
/home/malgorzata/Desktop/rDOCK_IFD/Wyniki/8_factor_Xa2/IFD

>  <Rbt.Executable>
rbdock ($Id: //depot/dev/client3/rdock/2013.1/src/exe/rbdock.cxx#4 $)

>  <Rbt.Library>
libRbt.so (2013.1, Build901 2013/11/27)

>  <Rbt.Parameter_File>
/home/malgorzata/Desktop/rDock_2013.1_src/data/scripts/dock.prm

>  <Rbt.Receptor>
cavity.prm

>  <SCORE>
-39.9585

>  <SCORE.INTER>
-14.6009

>  <SCORE.INTER.CONST>
1

>  <SCORE.INTER.POLAR>
-0.0538902

>  <SCORE.INTER.REPUL>
0

>  <SCORE.INTER.ROT>
9

>  <SCORE.INTER.VDW>
-28.8177

>  <SCORE.INTER.norm>
-0.442452

>  <SCORE.INTRA>
-1.07953

>  <SCORE.INTRA.DIHEDRAL>
-0.894536

>  <SCORE.INTRA.DIHEDRAL.0>
8.37942

>  <SCORE.INTRA.POLAR>
0

>  <SCORE.INTRA.POLAR.0>
0

>  <SCORE.INTRA.REPUL>
0

>  <SCORE.INTRA.REPUL.0>
0

>  <SCORE.INTRA.VDW>
-0.63226

>  <SCORE.INTRA.VDW.0>
-0.0658046

>  <SCORE.INTRA.norm>
-0.032713

>  <SCORE.RESTR>
0

>  <SCORE.RESTR.CAVITY>
0

>  <SCORE.RESTR.norm>
0

>  <SCORE.SYSTEM>
-24.278

>  <SCORE.SYSTEM.CONST>
0

>  <SCORE.SYSTEM.DIHEDRAL>
2.38091

>  <SCORE.SYSTEM.POLAR>
-7.2362

>  <SCORE.SYSTEM.REPUL>
0.0408055

>  <SCORE.SYSTEM.VDW>
-1.06941

>  <SCORE.SYSTEM.norm>
-0.735697

>  <SCORE.heavy>
33

>  <SCORE.norm>
-1.21086

$$$$
FXV.pdb
  rDOCK(R)          3D
libRbt.so/2013.1/901 2013/11/27
 38 40  0  0  0  0  0  0  0  0999 V2000
    5.0197   19.9124   13.1453 C   0  0  0  0  0  0
    3.6375   19.7043   12.8240 C   0  0  0  0  0  0
    3.2037   20.0059   11.4821 C   0  0  0  0  0  0
    4.1398   20.4996   10.5149 C   0  0  0  0  0  0
    5.4606   20.6960   10.8351 N   0  0  0  0  0  0
    5.8896   20.4066   12.1280 C   0  0  0  0  0  0
    0.3239   18.7667   14.6266 C   0  0  0  0  0  0
    0.8212   18.1227   15.8403 C   0  0  0  0  0  0
    2.2480   18.0303   16.0227 C   0  0  0  0  0  0
    3.1577   18.5475   15.0523 C   0  0  0  0  0  0
    2.6840   19.1783   13.8540 C   0  0  0  0  0  0
    1.2618   19.2759   13.6670 C   0  0  0  0  0  0
   -0.0422   17.5531   16.8690 C   0  0  0  0  0  0
   -1.3472   17.8624   16.7407 N   0  0  0  0  0  0
   -2.3675   17.3640   17.6280 C   0  0  0  0  0  0
   -3.1880   16.3118   16.8507 C   0  0  0  0  0  0
   -3.2080   18.5875   18.1530 C   0  0  0  0  0  0
   -4.1865   18.1119   19.2429 C   0  0  0  0  0  0
   -5.2091   17.3865   18.7144 O   0  0  0  0  0  0
   -3.9759   19.3809   17.0014 C   0  0  0  0  0  0
   -3.5077   21.8328   16.1547 C   0  0  0  0  0  0
   -3.5857   23.2804   16.3435 C   0  0  0  0  0  0
   -4.2052   23.7893   17.5557 C   0  0  0  0  0  0
   -4.7290   22.8916   18.5400 C   0  0  0  0  0  0
   -4.6460   21.4671   18.3438 C   0  0  0  0  0  0
   -4.0413   20.9086   17.1569 C   0  0  0  0  0  0
   -3.0538   24.2093   15.3435 C   0  0  0  0  0  0
   -2.9632   25.5209   15.5820 N   0  0  0  0  0  0
   -2.6410   23.7290   14.1570 N   0  0  0  0  0  0
   -4.0632   18.3619   20.3916 O   0  0  0  0  0  0
    0.3874   16.8218   17.7811 O   0  0  0  0  0  0
   -6.2786   16.8771   19.5149 C   0  0  0  0  0  0
    6.3517   21.1658    9.9175 O   0  0  0  0  0  0
   -1.6170   18.4580   16.0047 H   0  0  0  0  0  0
   -3.2617   25.8858   16.4463 H   0  0  0  0  0  0
   -2.7021   22.7647   13.9681 H   0  0  0  0  0  0
   -2.2776   24.3417   13.4773 H   0  0  0  0  0  0
    5.9652   21.1034    9.0300 H   0  0  0  0  0  0
  1  2  1  0  0  0
  1  6  2  0  0  0
  2  3  1  0  0  0
  2 11  1  0  0  0
  3  4  2  0  0  0
  4  5  1  0  0  0
  5  6  1  0  0  0
  5 33  1  0  0  0
  7  8  2  0  0  0
  7 12  1  0  0  0
  8  9  1  0  0  0
  8 13  1  0  0  0
  9 10  2  0  0  0
 10 11  1  0  0  0
 11 12  2  0  0  0
 13 14  1  0  0  0
 13 31  2  0  0  0
 14 15  1  0  0  0
 14 34  1  0  0  0
 15 16  1  0  0  0
 15 17  1  0  0  0
 17 18  1  0  0  0
 17 20  1  0  0  0
 18 19  1  0  0  0
 18 30  2  0  0  0
 19 32  1  0  0  0
 20 26  1  0  0  0
 21 22  2  0  0  0
 21 26  1  0  0  0
 22 23  1  0  0  0
 22 27  1  0  0  0
 23 24  2  0  0  0
 24 25  1  0  0  0
 25 26  2  0  0  0
 27 28  2  0  0  0
 27 29  1  0  0  0
 28 35  1  0  0  0
 29 36  1  0  0  0
 29 37  1  0  0  0
 33 38  1  0  0  0
M  END
>  <CHROM.0>
88.27233303,20.22572544,18.91267579,52.28580262,72.17157094,54.52001803,-171.15963755
178.77522267

>  <CHROM.1>
-16.36884953,-14.32115372,-10.95816105,-107.57309552,-172.66621659,-72.34860875
-142.43708308,-177.46457803,121.42841113,-171.18664785,-0.71222965,19.86885574
15.70394732,-0.27742640,-0.56250382,2.73113364

>  <FORMUL>
      FXV    C25 H27 N4 O4 1+

>  <HET>
 FXV  A 401      33

>  <HETNAM>
     FXV METHYL-3-(4'-N-OXOPYRIDYLPHENOYL)-3-METHYL-2-(M-AMIDINO
   2 FXV BENZYL)-PROPIONATE

>  <HETSYN>
     FXV FXV673

>  <Name>
FXV.pdb

>  <RI>
3.30511e+07

>  <Rbt.Current_Directory>
/home/malgorzata/Desktop/rDOCK_IFD/Wyniki/8_factor_Xa2/IFD

>  <Rbt.Executable>
rbdock ($Id: //depot/dev/client3/rdock/2013.1/src/exe/rbdock.cxx#4 $)

>  <Rbt.Library>
libRbt.so (2013.1, Build901 2013/11/27)

>  <Rbt.Parameter_File>
/home/malgorzata/Desktop/rDock_2013.1_src/data/scripts/dock.prm

>  <Rbt.Receptor>
cavity.prm

>  <SCORE>
-44.0255

>  <SCORE.INTER>
-20.1152

>  <SCORE.INTER.CONST>
1

>  <SCORE.INTER.POLAR>
-1.14564

>  <SCORE.INTER.REPUL>
0

>  <SCORE.INTER.ROT>
9

>  <SCORE.INTER.VDW>
-30.62

>  <SCORE.INTER.norm>
-0.609551

>  <SCORE.INTRA>
0.36619

>  <SCORE.INTRA.DIHEDRAL>
-0.0495254

>  <SCORE.INTRA.DIHEDRAL.0>
8.37942

>  <SCORE.INTRA.POLAR>
0

>  <SCORE.INTRA.POLAR.0>
0

>  <SCORE.INTRA.REPUL>
0

>  <SCORE.INTRA.REPUL.0>
0

>  <SCORE.INTRA.VDW>
0.390953

>  <SCORE.INTRA.VDW.0>
-0.0658046

>  <SCORE.INTRA.norm>
0.0110967

>  <SCORE.RESTR>
0

>  <SCORE.RESTR.CAVITY>
0

>  <SCORE.RESTR.norm>
0

>  <SCORE.SYSTEM>
-24.2765

>  <SCORE.SYSTEM.CONST>
0

>  <SCORE.SYSTEM.DIHEDRAL>
2.74807

>  <SCORE.SYSTEM.POLAR>
-7.23556

>  <SCORE.SYSTEM.REPUL>
0.0412084

>  <SCORE.SYSTEM.VDW>
-1.25569

>  <SCORE.SYSTEM.norm>
-0.735652

>  <SCORE.heavy>
33

>  <SCORE.norm>
-1.33411

$$$$
