FXV.pdb
  rDOCK(R)          3D
libRbt.so/2013.1/901 2013/11/27
 38 40  0  0  0  0  0  0  0  0999 V2000
   -2.4805   25.7478   18.0028 C   0  0  0  0  0  0
   -2.2004   24.4062   17.5797 C   0  0  0  0  0  0
   -1.5439   24.2226   16.3087 C   0  0  0  0  0  0
   -1.1927   25.3583   15.5072 C   0  0  0  0  0  0
   -1.4674   26.6379   15.9228 N   0  0  0  0  0  0
   -2.1000   26.8258   17.1491 C   0  0  0  0  0  0
   -4.2704   21.5403   19.1950 C   0  0  0  0  0  0
   -3.2897   20.9418   20.0979 C   0  0  0  0  0  0
   -1.9704   21.5203   20.1454 C   0  0  0  0  0  0
   -1.6205   22.6437   19.3377 C   0  0  0  0  0  0
   -2.5715   23.2389   18.4436 C   0  0  0  0  0  0
   -3.8902   22.6682   18.3931 C   0  0  0  0  0  0
   -3.5634   19.7828   20.9404 C   0  0  0  0  0  0
   -2.4820   19.2722   21.5610 N   0  0  0  0  0  0
   -2.5471   18.1557   22.4698 C   0  0  0  0  0  0
   -1.9499   18.6159   23.8174 C   0  0  0  0  0  0
   -1.8019   16.9359   21.8097 C   0  0  0  0  0  0
   -0.3815   17.3620   21.3945 C   0  0  0  0  0  0
    0.4084   16.2845   21.1376 O   0  0  0  0  0  0
   -2.5883   16.2915   20.5801 C   0  0  0  0  0  0
   -1.0826   15.6738   18.5067 C   0  0  0  0  0  0
   -0.3501   14.6863   17.7158 C   0  0  0  0  0  0
   -0.3512   13.3027   18.1603 C   0  0  0  0  0  0
   -1.0522   12.9180   19.3477 C   0  0  0  0  0  0
   -1.7712   13.8993   20.1187 C   0  0  0  0  0  0
   -1.8018   15.2879   19.7221 C   0  0  0  0  0  0
    0.3715   15.0675   16.4992 C   0  0  0  0  0  0
    1.1650   14.2068   15.8551 N   0  0  0  0  0  0
    0.2272   16.3140   16.0151 N   0  0  0  0  0  0
   -0.0271   18.4874   21.3234 O   0  0  0  0  0  0
   -4.7074   19.3143   21.0923 O   0  0  0  0  0  0
    1.7596   16.4166   20.6891 C   0  0  0  0  0  0
   -1.1350   27.7185   15.1621 O   0  0  0  0  0  0
   -1.6043   19.6821   21.3851 H   0  0  0  0  0  0
    1.2795   13.2913   16.1985 H   0  0  0  0  0  0
   -0.3544   16.9583   16.4798 H   0  0  0  0  0  0
    0.7032   16.5822   15.1961 H   0  0  0  0  0  0
   -1.4484   28.5277   15.5956 H   0  0  0  0  0  0
  1  2  1  0  0  0
  1  6  2  0  0  0
  2  3  1  0  0  0
  2 11  1  0  0  0
  3  4  2  0  0  0
  4  5  1  0  0  0
  5  6  1  0  0  0
  5 33  1  0  0  0
  7  8  2  0  0  0
  7 12  1  0  0  0
  8  9  1  0  0  0
  8 13  1  0  0  0
  9 10  2  0  0  0
 10 11  1  0  0  0
 11 12  2  0  0  0
 13 14  1  0  0  0
 13 31  2  0  0  0
 14 15  1  0  0  0
 14 34  1  0  0  0
 15 16  1  0  0  0
 15 17  1  0  0  0
 17 18  1  0  0  0
 17 20  1  0  0  0
 18 19  1  0  0  0
 18 30  2  0  0  0
 19 32  1  0  0  0
 20 26  1  0  0  0
 21 22  2  0  0  0
 21 26  1  0  0  0
 22 23  1  0  0  0
 22 27  1  0  0  0
 23 24  2  0  0  0
 24 25  1  0  0  0
 25 26  2  0  0  0
 27 28  2  0  0  0
 27 29  1  0  0  0
 28 35  1  0  0  0
 29 36  1  0  0  0
 29 37  1  0  0  0
 33 38  1  0  0  0
M  END
>  <CHROM.0>
104.81898760,3.08423510,-107.44855210,-72.30416635,52.74016336,-164.21783837
-61.28831304

>  <CHROM.1>
-95.40948773,177.03982174,171.32604552,-122.97543396,53.53896458,164.50385485
168.36031358,177.81106939,-93.91981682,172.32120172,-1.54262897,19.46309957
19.09644590,1.86678847,1.09700346,-0.50135045

>  <FORMUL>
      FXV    C25 H27 N4 O4 1+

>  <HET>
 FXV  A 401      33

>  <HETNAM>
     FXV METHYL-3-(4'-N-OXOPYRIDYLPHENOYL)-3-METHYL-2-(M-AMIDINO
   2 FXV BENZYL)-PROPIONATE

>  <HETSYN>
     FXV FXV673

>  <Name>
FXV.pdb

>  <RI>
0

>  <Rbt.Current_Directory>
/home/malgorzata/Desktop/rDOCK_IFD/Wyniki/8_factor_Xa2/IFD

>  <Rbt.Executable>
rbdock ($Id: //depot/dev/client3/rdock/2013.1/src/exe/rbdock.cxx#4 $)

>  <Rbt.Library>
libRbt.so (2013.1, Build901 2013/11/27)

>  <Rbt.Parameter_File>
/home/malgorzata/Desktop/rDock_2013.1_src/data/scripts/dock.prm

>  <Rbt.Receptor>
cavity.prm

>  <SCORE>
-16.9945

>  <SCORE.INTER>
-4.82038

>  <SCORE.INTER.CONST>
1

>  <SCORE.INTER.POLAR>
-1.2891

>  <SCORE.INTER.REPUL>
0

>  <SCORE.INTER.ROT>
9

>  <SCORE.INTER.VDW>
-14.8375

>  <SCORE.INTER.norm>
-0.146072

>  <SCORE.INTRA>
-2.76655

>  <SCORE.INTRA.DIHEDRAL>
-3.55722

>  <SCORE.INTRA.DIHEDRAL.0>
8.37942

>  <SCORE.INTRA.POLAR>
-0.11814

>  <SCORE.INTRA.POLAR.0>
0

>  <SCORE.INTRA.REPUL>
0

>  <SCORE.INTRA.REPUL.0>
0

>  <SCORE.INTRA.VDW>
-0.586257

>  <SCORE.INTRA.VDW.0>
-0.0658046

>  <SCORE.INTRA.norm>
-0.0838347

>  <SCORE.RESTR>
0

>  <SCORE.RESTR.CAVITY>
0

>  <SCORE.RESTR.norm>
0

>  <SCORE.SYSTEM>
-9.40754

>  <SCORE.SYSTEM.CONST>
0

>  <SCORE.SYSTEM.DIHEDRAL>
2.99889

>  <SCORE.SYSTEM.POLAR>
-2.52522

>  <SCORE.SYSTEM.REPUL>
0.216984

>  <SCORE.SYSTEM.VDW>
-3.40614

>  <SCORE.SYSTEM.norm>
-0.285077

>  <SCORE.heavy>
33

>  <SCORE.norm>
-0.514984

$$$$
FXV.pdb
  rDOCK(R)          3D
libRbt.so/2013.1/901 2013/11/27
 38 40  0  0  0  0  0  0  0  0999 V2000
   -1.4824   25.1433   16.0959 C   0  0  0  0  0  0
   -2.2392   24.3416   17.0134 C   0  0  0  0  0  0
   -3.0518   25.0214   17.9920 C   0  0  0  0  0  0
   -3.0864   26.4541   18.0316 C   0  0  0  0  0  0
   -2.3561   27.2106   17.1485 N   0  0  0  0  0  0
   -1.5693   26.5637   16.1989 C   0  0  0  0  0  0
   -1.4623   20.6423   17.9184 C   0  0  0  0  0  0
   -2.1213   19.9278   16.8274 C   0  0  0  0  0  0
   -2.7966   20.7049   15.8186 C   0  0  0  0  0  0
   -2.8286   22.1306   15.8744 C   0  0  0  0  0  0
   -2.1899   22.8453   16.9418 C   0  0  0  0  0  0
   -1.5123   22.0762   17.9502 C   0  0  0  0  0  0
   -2.1498   18.4741   16.7096 C   0  0  0  0  0  0
   -1.4208   17.8216   17.6358 N   0  0  0  0  0  0
   -1.3529   16.3845   17.7184 C   0  0  0  0  0  0
   -1.9160   15.9694   19.0950 C   0  0  0  0  0  0
    0.1371   15.9437   17.4643 C   0  0  0  0  0  0
    1.0881   16.8533   18.2641 C   0  0  0  0  0  0
    2.3716   16.4053   18.2097 O   0  0  0  0  0  0
    0.5423   15.9079   15.9215 C   0  0  0  0  0  0
   -1.7861   15.3922   14.7988 C   0  0  0  0  0  0
   -2.6200   14.5786   13.9157 C   0  0  0  0  0  0
   -2.0125   13.4462   13.2371 C   0  0  0  0  0  0
   -0.6278   13.1377   13.4282 C   0  0  0  0  0  0
    0.1843   13.9458   14.3012 C   0  0  0  0  0  0
   -0.3691   15.0829   14.9991 C   0  0  0  0  0  0
   -4.0381   14.8842   13.7115 C   0  0  0  0  0  0
   -4.5465   16.0848   14.0037 N   0  0  0  0  0  0
   -4.8479   13.9337   13.2118 N   0  0  0  0  0  0
    0.7354   17.8120   18.8589 O   0  0  0  0  0  0
   -2.8116   17.8809   15.8369 O   0  0  0  0  0  0
    3.4508   17.0987   18.8412 C   0  0  0  0  0  0
   -2.3871   28.5724   17.1849 O   0  0  0  0  0  0
   -0.9093   18.3526   18.2883 H   0  0  0  0  0  0
   -3.9649   16.7897   14.3700 H   0  0  0  0  0  0
   -4.4864   13.0446   12.9922 H   0  0  0  0  0  0
   -5.8022   14.1268   13.0658 H   0  0  0  0  0  0
   -2.0695   28.9258   16.3392 H   0  0  0  0  0  0
  1  2  1  0  0  0
  1  6  2  0  0  0
  2  3  1  0  0  0
  2 11  1  0  0  0
  3  4  2  0  0  0
  4  5  1  0  0  0
  5  6  1  0  0  0
  5 33  1  0  0  0
  7  8  2  0  0  0
  7 12  1  0  0  0
  8  9  1  0  0  0
  8 13  1  0  0  0
  9 10  2  0  0  0
 10 11  1  0  0  0
 11 12  2  0  0  0
 13 14  1  0  0  0
 13 31  2  0  0  0
 14 15  1  0  0  0
 14 34  1  0  0  0
 15 16  1  0  0  0
 15 17  1  0  0  0
 17 18  1  0  0  0
 17 20  1  0  0  0
 18 19  1  0  0  0
 18 30  2  0  0  0
 19 32  1  0  0  0
 20 26  1  0  0  0
 21 22  2  0  0  0
 21 26  1  0  0  0
 22 23  1  0  0  0
 22 27  1  0  0  0
 23 24  2  0  0  0
 24 25  1  0  0  0
 25 26  2  0  0  0
 27 28  2  0  0  0
 27 29  1  0  0  0
 28 35  1  0  0  0
 29 36  1  0  0  0
 29 37  1  0  0  0
 33 38  1  0  0  0
M  END
>  <CHROM.0>
125.31332839,10.90856054,-108.47592444,-160.38873751,56.23194637,-173.21813547
-61.28831304

>  <CHROM.1>
-72.03427954,-161.23226831,-5.19160050,-118.48326038,44.70309592,172.25318786
-53.19588239,178.18258322,61.63918787,18.66929729,-1.52809440,19.06317918
16.43482213,1.67966213,-0.67738555,0.24541308

>  <FORMUL>
      FXV    C25 H27 N4 O4 1+

>  <HET>
 FXV  A 401      33

>  <HETNAM>
     FXV METHYL-3-(4'-N-OXOPYRIDYLPHENOYL)-3-METHYL-2-(M-AMIDINO
   2 FXV BENZYL)-PROPIONATE

>  <HETSYN>
     FXV FXV673

>  <Name>
FXV.pdb

>  <RI>
0

>  <Rbt.Current_Directory>
/home/malgorzata/Desktop/rDOCK_IFD/Wyniki/8_factor_Xa2/IFD

>  <Rbt.Executable>
rbdock ($Id: //depot/dev/client3/rdock/2013.1/src/exe/rbdock.cxx#4 $)

>  <Rbt.Library>
libRbt.so (2013.1, Build901 2013/11/27)

>  <Rbt.Parameter_File>
/home/malgorzata/Desktop/rDock_2013.1_src/data/scripts/dock.prm

>  <Rbt.Receptor>
cavity.prm

>  <SCORE>
-26.4152

>  <SCORE.INTER>
-13.3126

>  <SCORE.INTER.CONST>
1

>  <SCORE.INTER.POLAR>
-1.72975

>  <SCORE.INTER.REPUL>
0

>  <SCORE.INTER.ROT>
9

>  <SCORE.INTER.VDW>
-21.8314

>  <SCORE.INTER.norm>
-0.403411

>  <SCORE.INTRA>
-5.95475

>  <SCORE.INTRA.DIHEDRAL>
-2.20827

>  <SCORE.INTRA.DIHEDRAL.0>
8.37942

>  <SCORE.INTRA.POLAR>
-1.15139

>  <SCORE.INTRA.POLAR.0>
0

>  <SCORE.INTRA.REPUL>
0

>  <SCORE.INTRA.REPUL.0>
0

>  <SCORE.INTRA.VDW>
-0.93587

>  <SCORE.INTRA.VDW.0>
-0.0658046

>  <SCORE.INTRA.norm>
-0.180447

>  <SCORE.RESTR>
0

>  <SCORE.RESTR.CAVITY>
0

>  <SCORE.RESTR.norm>
0

>  <SCORE.SYSTEM>
-7.14783

>  <SCORE.SYSTEM.CONST>
0

>  <SCORE.SYSTEM.DIHEDRAL>
3.04993

>  <SCORE.SYSTEM.POLAR>
-2.1229

>  <SCORE.SYSTEM.REPUL>
0.281257

>  <SCORE.SYSTEM.VDW>
-2.86124

>  <SCORE.SYSTEM.norm>
-0.216601

>  <SCORE.heavy>
33

>  <SCORE.norm>
-0.800459

$$$$
FXV.pdb
  rDOCK(R)          3D
libRbt.so/2013.1/901 2013/11/27
 38 40  0  0  0  0  0  0  0  0999 V2000
   -1.4131   26.2207   16.2114 C   0  0  0  0  0  0
   -2.0854   25.2687   17.0473 C   0  0  0  0  0  0
   -2.9902   25.7723   18.0512 C   0  0  0  0  0  0
   -3.1955   27.1840   18.1946 C   0  0  0  0  0  0
   -2.5449   28.0856   17.3889 N   0  0  0  0  0  0
   -1.6700   27.6093   16.4157 C   0  0  0  0  0  0
   -2.7455   21.4429   16.8586 C   0  0  0  0  0  0
   -1.4277   20.9351   16.4836 C   0  0  0  0  0  0
   -0.3577   21.8860   16.3146 C   0  0  0  0  0  0
   -0.5681   23.2848   16.5037 C   0  0  0  0  0  0
   -1.8573   23.7982   16.8677 C   0  0  0  0  0  0
   -2.9285   22.8547   17.0403 C   0  0  0  0  0  0
   -1.1369   19.5242   16.2538 C   0  0  0  0  0  0
   -2.1857   18.6982   16.4348 N   0  0  0  0  0  0
   -2.1173   17.2755   16.2160 C   0  0  0  0  0  0
   -2.5177   17.0097   14.7486 C   0  0  0  0  0  0
   -3.0351   16.5660   17.2805 C   0  0  0  0  0  0
   -4.5089   16.9214   17.0101 C   0  0  0  0  0  0
   -5.1348   15.9478   16.2951 O   0  0  0  0  0  0
   -2.6362   16.8901   18.7909 C   0  0  0  0  0  0
   -0.6407   15.8972   20.1981 C   0  0  0  0  0  0
   -0.0269   14.7898   20.9288 C   0  0  0  0  0  0
   -0.7515   13.5334   21.0210 C   0  0  0  0  0  0
   -2.0385   13.3865   20.4116 C   0  0  0  0  0  0
   -2.6334   14.4841   19.6934 C   0  0  0  0  0  0
   -1.9566   15.7544   19.5723 C   0  0  0  0  0  0
    1.2892   14.9276   21.5572 C   0  0  0  0  0  0
    1.8988   13.8933   22.1435 N   0  0  0  0  0  0
    1.9020   16.1248   21.5386 N   0  0  0  0  0  0
   -5.0204   17.9239   17.3717 O   0  0  0  0  0  0
   -0.0153   19.1159   15.8977 O   0  0  0  0  0  0
   -6.5151   16.0333   15.9321 C   0  0  0  0  0  0
   -2.7382   29.4277   17.5240 O   0  0  0  0  0  0
   -3.0410   19.0856   16.7312 H   0  0  0  0  0  0
    1.4615   13.0115   22.1642 H   0  0  0  0  0  0
    1.4641   16.8954   21.1100 H   0  0  0  0  0  0
    2.7885   16.2305   21.9536 H   0  0  0  0  0  0
   -2.8922   29.6397   18.4580 H   0  0  0  0  0  0
  1  2  1  0  0  0
  1  6  2  0  0  0
  2  3  1  0  0  0
  2 11  1  0  0  0
  3  4  2  0  0  0
  4  5  1  0  0  0
  5  6  1  0  0  0
  5 33  1  0  0  0
  7  8  2  0  0  0
  7 12  1  0  0  0
  8  9  1  0  0  0
  8 13  1  0  0  0
  9 10  2  0  0  0
 10 11  1  0  0  0
 11 12  2  0  0  0
 13 14  1  0  0  0
 13 31  2  0  0  0
 14 15  1  0  0  0
 14 34  1  0  0  0
 15 16  1  0  0  0
 15 17  1  0  0  0
 17 18  1  0  0  0
 17 20  1  0  0  0
 18 19  1  0  0  0
 18 30  2  0  0  0
 19 32  1  0  0  0
 20 26  1  0  0  0
 21 22  2  0  0  0
 21 26  1  0  0  0
 22 23  1  0  0  0
 22 27  1  0  0  0
 23 24  2  0  0  0
 24 25  1  0  0  0
 25 26  2  0  0  0
 27 28  2  0  0  0
 27 29  1  0  0  0
 28 35  1  0  0  0
 29 36  1  0  0  0
 29 37  1  0  0  0
 33 38  1  0  0  0
M  END
>  <CHROM.0>
-156.39127061,5.73738643,-54.90078775,-72.54745885,-178.44543558,-59.88907956
-61.28831304

>  <CHROM.1>
35.90430595,33.56806014,-0.99055505,-91.02891599,66.81114729,97.35822457
-107.07069836,179.10062331,122.91427203,-175.10734331,-1.97969246,19.65444492
17.86438256,-1.67613393,0.70862555,2.98838038

>  <FORMUL>
      FXV    C25 H27 N4 O4 1+

>  <HET>
 FXV  A 401      33

>  <HETNAM>
     FXV METHYL-3-(4'-N-OXOPYRIDYLPHENOYL)-3-METHYL-2-(M-AMIDINO
   2 FXV BENZYL)-PROPIONATE

>  <HETSYN>
     FXV FXV673

>  <Name>
FXV.pdb

>  <RI>
0

>  <Rbt.Current_Directory>
/home/malgorzata/Desktop/rDOCK_IFD/Wyniki/8_factor_Xa2/IFD

>  <Rbt.Executable>
rbdock ($Id: //depot/dev/client3/rdock/2013.1/src/exe/rbdock.cxx#4 $)

>  <Rbt.Library>
libRbt.so (2013.1, Build901 2013/11/27)

>  <Rbt.Parameter_File>
/home/malgorzata/Desktop/rDock_2013.1_src/data/scripts/dock.prm

>  <Rbt.Receptor>
cavity.prm

>  <SCORE>
-19.0176

>  <SCORE.INTER>
-8.92103

>  <SCORE.INTER.CONST>
1

>  <SCORE.INTER.POLAR>
-1.42462

>  <SCORE.INTER.REPUL>
0.00399275

>  <SCORE.INTER.ROT>
9

>  <SCORE.INTER.VDW>
-18.4973

>  <SCORE.INTER.norm>
-0.270334

>  <SCORE.INTRA>
1.17352

>  <SCORE.INTRA.DIHEDRAL>
3.55126

>  <SCORE.INTRA.DIHEDRAL.0>
8.37942

>  <SCORE.INTRA.POLAR>
0

>  <SCORE.INTRA.POLAR.0>
0

>  <SCORE.INTRA.REPUL>
0

>  <SCORE.INTRA.REPUL.0>
0

>  <SCORE.INTRA.VDW>
-0.60211

>  <SCORE.INTRA.VDW.0>
-0.0658046

>  <SCORE.INTRA.norm>
0.0355612

>  <SCORE.RESTR>
0.0100375

>  <SCORE.RESTR.CAVITY>
0.0100375

>  <SCORE.RESTR.norm>
0.000304168

>  <SCORE.SYSTEM>
-11.2801

>  <SCORE.SYSTEM.CONST>
0

>  <SCORE.SYSTEM.DIHEDRAL>
1.65133

>  <SCORE.SYSTEM.POLAR>
-2.3616

>  <SCORE.SYSTEM.VDW>
-4.07637

>  <SCORE.SYSTEM.norm>
-0.341822

>  <SCORE.heavy>
33

>  <SCORE.norm>
-0.576291

$$$$
FXV.pdb
  rDOCK(R)          3D
libRbt.so/2013.1/901 2013/11/27
 38 40  0  0  0  0  0  0  0  0999 V2000
   -1.2579   25.7259   15.9246 C   0  0  0  0  0  0
   -1.8680   24.8433   16.8764 C   0  0  0  0  0  0
   -2.4398   25.4248   18.0660 C   0  0  0  0  0  0
   -2.3877   26.8425   18.2730 C   0  0  0  0  0  0
   -1.7995   27.6770   17.3547 N   0  0  0  0  0  0
   -1.2455   27.1254   16.2022 C   0  0  0  0  0  0
   -3.2221   21.3014   16.0228 C   0  0  0  0  0  0
   -2.0074   20.4937   16.1076 C   0  0  0  0  0  0
   -0.7757   21.1563   16.4563 C   0  0  0  0  0  0
   -0.7318   22.5596   16.7118 C   0  0  0  0  0  0
   -1.9154   23.3659   16.6281 C   0  0  0  0  0  0
   -3.1479   22.7108   16.2830 C   0  0  0  0  0  0
   -1.9661   19.0597   15.8429 C   0  0  0  0  0  0
   -3.1663   18.4999   15.5955 N   0  0  0  0  0  0
   -3.3353   17.1065   15.2690 C   0  0  0  0  0  0
   -4.7530   16.9339   14.6816 C   0  0  0  0  0  0
   -3.0597   16.2570   16.5657 C   0  0  0  0  0  0
   -3.3075   14.7664   16.2686 C   0  0  0  0  0  0
   -3.1313   13.9997   17.3786 O   0  0  0  0  0  0
   -3.8980   16.7342   17.8366 C   0  0  0  0  0  0
   -4.5015   19.2480   18.3508 C   0  0  0  0  0  0
   -4.1380   20.5602   18.8830 C   0  0  0  0  0  0
   -2.8124   20.7347   19.4526 C   0  0  0  0  0  0
   -1.8860   19.6441   19.4931 C   0  0  0  0  0  0
   -2.2547   18.3557   18.9651 C   0  0  0  0  0  0
   -3.5594   18.1280   18.3889 C   0  0  0  0  0  0
   -5.0771   21.6839   18.8478 C   0  0  0  0  0  0
   -6.3695   21.5096   18.5568 N   0  0  0  0  0  0
   -4.6281   22.9220   19.1207 N   0  0  0  0  0  0
   -3.6012   14.3485   15.2027 O   0  0  0  0  0  0
   -0.9053   18.4072   15.8254 O   0  0  0  0  0  0
   -3.3153   12.5818   17.3654 C   0  0  0  0  0  0
   -1.7483   29.0246   17.5500 O   0  0  0  0  0  0
   -3.9673   19.0708   15.6399 H   0  0  0  0  0  0
   -6.7115   20.6087   18.3551 H   0  0  0  0  0  0
   -3.6782   23.0646   19.3367 H   0  0  0  0  0  0
   -5.2492   23.6857   19.1045 H   0  0  0  0  0  0
   -1.5708   29.4672   16.7053 H   0  0  0  0  0  0
  1  2  1  0  0  0
  1  6  2  0  0  0
  2  3  1  0  0  0
  2 11  1  0  0  0
  3  4  2  0  0  0
  4  5  1  0  0  0
  5  6  1  0  0  0
  5 33  1  0  0  0
  7  8  2  0  0  0
  7 12  1  0  0  0
  8  9  1  0  0  0
  8 13  1  0  0  0
  9 10  2  0  0  0
 10 11  1  0  0  0
 11 12  2  0  0  0
 13 14  1  0  0  0
 13 31  2  0  0  0
 14 15  1  0  0  0
 14 34  1  0  0  0
 15 16  1  0  0  0
 15 17  1  0  0  0
 17 18  1  0  0  0
 17 20  1  0  0  0
 18 19  1  0  0  0
 18 30  2  0  0  0
 19 32  1  0  0  0
 20 26  1  0  0  0
 21 22  2  0  0  0
 21 26  1  0  0  0
 22 23  1  0  0  0
 22 27  1  0  0  0
 23 24  2  0  0  0
 24 25  1  0  0  0
 25 26  2  0  0  0
 27 28  2  0  0  0
 27 29  1  0  0  0
 28 35  1  0  0  0
 29 36  1  0  0  0
 29 37  1  0  0  0
 33 38  1  0  0  0
M  END
>  <CHROM.0>
105.69796377,4.49876255,-108.75453010,61.41339492,52.89279305,-164.88030749
-61.28831304

>  <CHROM.1>
71.72489172,-161.78683213,-4.27044029,-164.55556541,176.93237069,-177.60153614
-66.10350205,179.40454345,113.99730178,12.21694801,-2.87541515,20.55370115
17.14540162,-1.38775101,-0.85249045,-2.93930771

>  <FORMUL>
      FXV    C25 H27 N4 O4 1+

>  <HET>
 FXV  A 401      33

>  <HETNAM>
     FXV METHYL-3-(4'-N-OXOPYRIDYLPHENOYL)-3-METHYL-2-(M-AMIDINO
   2 FXV BENZYL)-PROPIONATE

>  <HETSYN>
     FXV FXV673

>  <Name>
FXV.pdb

>  <RI>
0

>  <Rbt.Current_Directory>
/home/malgorzata/Desktop/rDOCK_IFD/Wyniki/8_factor_Xa2/IFD

>  <Rbt.Executable>
rbdock ($Id: //depot/dev/client3/rdock/2013.1/src/exe/rbdock.cxx#4 $)

>  <Rbt.Library>
libRbt.so (2013.1, Build901 2013/11/27)

>  <Rbt.Parameter_File>
/home/malgorzata/Desktop/rDock_2013.1_src/data/scripts/dock.prm

>  <Rbt.Receptor>
cavity.prm

>  <SCORE>
-22.887

>  <SCORE.INTER>
-9.83006

>  <SCORE.INTER.CONST>
1

>  <SCORE.INTER.POLAR>
-0.935372

>  <SCORE.INTER.REPUL>
0

>  <SCORE.INTER.ROT>
9

>  <SCORE.INTER.VDW>
-21.0498

>  <SCORE.INTER.norm>
-0.297881

>  <SCORE.INTRA>
-5.39705

>  <SCORE.INTRA.DIHEDRAL>
-3.78275

>  <SCORE.INTRA.DIHEDRAL.0>
8.37942

>  <SCORE.INTRA.POLAR>
0

>  <SCORE.INTRA.POLAR.0>
0

>  <SCORE.INTRA.REPUL>
0

>  <SCORE.INTRA.REPUL.0>
0

>  <SCORE.INTRA.VDW>
-3.50568

>  <SCORE.INTRA.VDW.0>
-0.0658046

>  <SCORE.INTRA.norm>
-0.163547

>  <SCORE.RESTR>
0

>  <SCORE.RESTR.CAVITY>
0

>  <SCORE.RESTR.norm>
0

>  <SCORE.SYSTEM>
-7.65989

>  <SCORE.SYSTEM.CONST>
0

>  <SCORE.SYSTEM.DIHEDRAL>
2.20157

>  <SCORE.SYSTEM.POLAR>
-2.2015

>  <SCORE.SYSTEM.REPUL>
0.338136

>  <SCORE.SYSTEM.VDW>
-2.96627

>  <SCORE.SYSTEM.norm>
-0.232118

>  <SCORE.heavy>
33

>  <SCORE.norm>
-0.693546

$$$$
FXV.pdb
  rDOCK(R)          3D
libRbt.so/2013.1/901 2013/11/27
 38 40  0  0  0  0  0  0  0  0999 V2000
   -2.7720   25.8684   18.2737 C   0  0  0  0  0  0
   -1.9661   25.3280   17.2175 C   0  0  0  0  0  0
   -1.3824   26.2502   16.2746 C   0  0  0  0  0  0
   -1.6144   27.6589   16.4050 C   0  0  0  0  0  0
   -2.3891   28.1640   17.4200 N   0  0  0  0  0  0
   -2.9563   27.2819   18.3363 C   0  0  0  0  0  0
   -0.5836   21.9015   16.0111 C   0  0  0  0  0  0
   -1.2497   20.9769   16.9257 C   0  0  0  0  0  0
   -2.1469   21.5266   17.9109 C   0  0  0  0  0  0
   -2.3841   22.9310   18.0005 C   0  0  0  0  0  0
   -1.7340   23.8510   17.1122 C   0  0  0  0  0  0
   -0.8395   23.3090   16.1255 C   0  0  0  0  0  0
   -1.0459   19.5325   16.9107 C   0  0  0  0  0  0
   -0.5638   19.0458   15.7506 N   0  0  0  0  0  0
   -0.2531   17.6535   15.5470 C   0  0  0  0  0  0
    1.1696   17.5754   14.9518 C   0  0  0  0  0  0
   -1.3745   17.0234   14.6390 C   0  0  0  0  0  0
   -2.7605   17.4265   15.1758 C   0  0  0  0  0  0
   -3.3303   18.3961   14.4102 O   0  0  0  0  0  0
   -1.2601   15.4398   14.4825 C   0  0  0  0  0  0
   -1.0791   15.2650   17.1064 C   0  0  0  0  0  0
   -0.9759   14.4620   18.3236 C   0  0  0  0  0  0
   -0.9478   13.0143   18.1991 C   0  0  0  0  0  0
   -1.0224   12.3907   16.9128 C   0  0  0  0  0  0
   -1.1231   13.1919   15.7201 C   0  0  0  0  0  0
   -1.1559   14.6343   15.7874 C   0  0  0  0  0  0
   -0.8994   15.0882   19.6457 C   0  0  0  0  0  0
   -0.7565   14.3627   20.7587 N   0  0  0  0  0  0
   -0.9691   16.4279   19.7413 N   0  0  0  0  0  0
   -3.2539   16.9558   16.1413 O   0  0  0  0  0  0
   -1.2779   18.8082   17.8971 O   0  0  0  0  0  0
   -4.5583   19.0328   14.7719 C   0  0  0  0  0  0
   -2.6114   29.5026   17.5452 O   0  0  0  0  0  0
   -0.4166   19.6721   15.0053 H   0  0  0  0  0  0
   -0.7041   13.3812   20.7031 H   0  0  0  0  0  0
   -1.0744   16.9745   18.9292 H   0  0  0  0  0  0
   -0.9149   16.8621   20.6233 H   0  0  0  0  0  0
   -2.8070   29.7126   18.4718 H   0  0  0  0  0  0
  1  2  1  0  0  0
  1  6  2  0  0  0
  2  3  1  0  0  0
  2 11  1  0  0  0
  3  4  2  0  0  0
  4  5  1  0  0  0
  5  6  1  0  0  0
  5 33  1  0  0  0
  7  8  2  0  0  0
  7 12  1  0  0  0
  8  9  1  0  0  0
  8 13  1  0  0  0
  9 10  2  0  0  0
 10 11  1  0  0  0
 11 12  2  0  0  0
 13 14  1  0  0  0
 13 31  2  0  0  0
 14 15  1  0  0  0
 14 34  1  0  0  0
 15 16  1  0  0  0
 15 17  1  0  0  0
 17 18  1  0  0  0
 17 20  1  0  0  0
 18 19  1  0  0  0
 18 30  2  0  0  0
 19 32  1  0  0  0
 20 26  1  0  0  0
 21 22  2  0  0  0
 21 26  1  0  0  0
 22 23  1  0  0  0
 22 27  1  0  0  0
 23 24  2  0  0  0
 24 25  1  0  0  0
 25 26  2  0  0  0
 27 28  2  0  0  0
 27 29  1  0  0  0
 28 35  1  0  0  0
 29 36  1  0  0  0
 29 37  1  0  0  0
 33 38  1  0  0  0
M  END
>  <CHROM.0>
-117.80400737,7.35671255,36.41115397,-167.41780827,-64.60856609,-60.75555431
-61.28831304

>  <CHROM.1>
4.51781864,-154.42309273,-20.98471445,-130.16631190,-47.71861000,104.17316153
51.95699184,-173.77497999,-3.74566978,-177.55205624,-1.60051403,19.73611450
16.85930843,-2.12199330,1.40687569,-2.57807020

>  <FORMUL>
      FXV    C25 H27 N4 O4 1+

>  <HET>
 FXV  A 401      33

>  <HETNAM>
     FXV METHYL-3-(4'-N-OXOPYRIDYLPHENOYL)-3-METHYL-2-(M-AMIDINO
   2 FXV BENZYL)-PROPIONATE

>  <HETSYN>
     FXV FXV673

>  <Name>
FXV.pdb

>  <RI>
0

>  <Rbt.Current_Directory>
/home/malgorzata/Desktop/rDOCK_IFD/Wyniki/8_factor_Xa2/IFD

>  <Rbt.Executable>
rbdock ($Id: //depot/dev/client3/rdock/2013.1/src/exe/rbdock.cxx#4 $)

>  <Rbt.Library>
libRbt.so (2013.1, Build901 2013/11/27)

>  <Rbt.Parameter_File>
/home/malgorzata/Desktop/rDock_2013.1_src/data/scripts/dock.prm

>  <Rbt.Receptor>
cavity.prm

>  <SCORE>
-21.9603

>  <SCORE.INTER>
-13.0756

>  <SCORE.INTER.CONST>
1

>  <SCORE.INTER.POLAR>
-1.54362

>  <SCORE.INTER.REPUL>
0.117685

>  <SCORE.INTER.ROT>
9

>  <SCORE.INTER.VDW>
-22.8157

>  <SCORE.INTER.norm>
-0.396231

>  <SCORE.INTRA>
-4.45243

>  <SCORE.INTRA.DIHEDRAL>
1.27125

>  <SCORE.INTRA.DIHEDRAL.0>
8.37942

>  <SCORE.INTRA.POLAR>
-1

>  <SCORE.INTRA.POLAR.0>
0

>  <SCORE.INTRA.REPUL>
0

>  <SCORE.INTRA.REPUL.0>
0

>  <SCORE.INTRA.VDW>
-1.68805

>  <SCORE.INTRA.VDW.0>
-0.0658046

>  <SCORE.INTRA.norm>
-0.134922

>  <SCORE.RESTR>
0

>  <SCORE.RESTR.CAVITY>
0

>  <SCORE.RESTR.norm>
0

>  <SCORE.SYSTEM>
-4.43225

>  <SCORE.SYSTEM.CONST>
0

>  <SCORE.SYSTEM.DIHEDRAL>
1.78713

>  <SCORE.SYSTEM.POLAR>
-2.03216

>  <SCORE.SYSTEM.REPUL>
0.00435888

>  <SCORE.SYSTEM.VDW>
1.56173

>  <SCORE.SYSTEM.norm>
-0.134311

>  <SCORE.heavy>
33

>  <SCORE.norm>
-0.665464

$$$$
FXV.pdb
  rDOCK(R)          3D
libRbt.so/2013.1/901 2013/11/27
 38 40  0  0  0  0  0  0  0  0999 V2000
   -2.5994   26.0064   18.1403 C   0  0  0  0  0  0
   -1.8934   25.4176   17.0394 C   0  0  0  0  0  0
   -1.1227   26.2900   16.1878 C   0  0  0  0  0  0
   -1.0785   27.6990   16.4491 C   0  0  0  0  0  0
   -1.7600   28.2510   17.5057 N   0  0  0  0  0  0
   -2.5061   27.4169   18.3346 C   0  0  0  0  0  0
   -1.3166   21.5976   17.4662 C   0  0  0  0  0  0
   -2.0899   21.0567   16.3506 C   0  0  0  0  0  0
   -2.7723   21.9859   15.4854 C   0  0  0  0  0  0
   -2.7030   23.3946   15.7033 C   0  0  0  0  0  0
   -1.9513   23.9396   16.7968 C   0  0  0  0  0  0
   -1.2662   23.0184   17.6624 C   0  0  0  0  0  0
   -2.2253   19.6311   16.0725 C   0  0  0  0  0  0
   -1.3304   18.8483   16.7061 N   0  0  0  0  0  0
   -1.3230   17.4113   16.5988 C   0  0  0  0  0  0
   -1.0829   16.8393   18.0129 C   0  0  0  0  0  0
   -0.2362   16.9996   15.5365 C   0  0  0  0  0  0
    1.1294   17.5848   15.9418 C   0  0  0  0  0  0
    2.1563   16.8994   15.3702 O   0  0  0  0  0  0
   -0.6126   17.4080   14.0409 C   0  0  0  0  0  0
    1.5809   18.0656   12.7353 C   0  0  0  0  0  0
    2.5819   17.7848   11.7076 C   0  0  0  0  0  0
    2.4456   16.5712   10.9198 C   0  0  0  0  0  0
    1.3564   15.6709   11.1486 C   0  0  0  0  0  0
    0.3755   15.9580   12.1634 C   0  0  0  0  0  0
    0.4643   17.1496   12.9751 C   0  0  0  0  0  0
    3.7013   18.6979   11.4641 C   0  0  0  0  0  0
    4.5440   18.5185   10.4429 N   0  0  0  0  0  0
    3.8820   19.7468   12.2864 N   0  0  0  0  0  0
    1.2596   18.5069   16.6697 O   0  0  0  0  0  0
   -3.1099   19.1704   15.3265 O   0  0  0  0  0  0
    3.5235   17.2731   15.5586 C   0  0  0  0  0  0
   -1.7199   29.5900   17.7552 O   0  0  0  0  0  0
   -0.6481   19.2791   17.2701 H   0  0  0  0  0  0
    4.4232   17.7549    9.8334 H   0  0  0  0  0  0
    3.2685   19.8909   13.0427 H   0  0  0  0  0  0
    4.6279   20.3706   12.1319 H   0  0  0  0  0  0
   -2.3354   29.8035   18.4739 H   0  0  0  0  0  0
  1  2  1  0  0  0
  1  6  2  0  0  0
  2  3  1  0  0  0
  2 11  1  0  0  0
  3  4  2  0  0  0
  4  5  1  0  0  0
  5  6  1  0  0  0
  5 33  1  0  0  0
  7  8  2  0  0  0
  7 12  1  0  0  0
  8  9  1  0  0  0
  8 13  1  0  0  0
  9 10  2  0  0  0
 10 11  1  0  0  0
 11 12  2  0  0  0
 13 14  1  0  0  0
 13 31  2  0  0  0
 14 15  1  0  0  0
 14 34  1  0  0  0
 15 16  1  0  0  0
 15 17  1  0  0  0
 17 18  1  0  0  0
 17 20  1  0  0  0
 18 19  1  0  0  0
 18 30  2  0  0  0
 19 32  1  0  0  0
 20 26  1  0  0  0
 21 22  2  0  0  0
 21 26  1  0  0  0
 22 23  1  0  0  0
 22 27  1  0  0  0
 23 24  2  0  0  0
 24 25  1  0  0  0
 25 26  2  0  0  0
 27 28  2  0  0  0
 27 29  1  0  0  0
 28 35  1  0  0  0
 29 36  1  0  0  0
 29 37  1  0  0  0
 33 38  1  0  0  0
M  END
>  <CHROM.0>
-121.74342228,-0.44580938,30.34197632,63.58125679,-177.65367280,39.15598015
-61.28831304

>  <CHROM.1>
107.30414472,173.72141767,-15.67907942,-137.04770150,56.05236302,158.09457523
174.59189965,178.04814837,-81.91594721,-173.28476446,-0.13610321,20.62462260
15.25922310,2.09718394,0.80167488,0.03219805

>  <FORMUL>
      FXV    C25 H27 N4 O4 1+

>  <HET>
 FXV  A 401      33

>  <HETNAM>
     FXV METHYL-3-(4'-N-OXOPYRIDYLPHENOYL)-3-METHYL-2-(M-AMIDINO
   2 FXV BENZYL)-PROPIONATE

>  <HETSYN>
     FXV FXV673

>  <Name>
FXV.pdb

>  <RI>
0

>  <Rbt.Current_Directory>
/home/malgorzata/Desktop/rDOCK_IFD/Wyniki/8_factor_Xa2/IFD

>  <Rbt.Executable>
rbdock ($Id: //depot/dev/client3/rdock/2013.1/src/exe/rbdock.cxx#4 $)

>  <Rbt.Library>
libRbt.so (2013.1, Build901 2013/11/27)

>  <Rbt.Parameter_File>
/home/malgorzata/Desktop/rDock_2013.1_src/data/scripts/dock.prm

>  <Rbt.Receptor>
cavity.prm

>  <SCORE>
-35.3575

>  <SCORE.INTER>
-23.8607

>  <SCORE.INTER.CONST>
1

>  <SCORE.INTER.POLAR>
-1.57699

>  <SCORE.INTER.REPUL>
0.0041324

>  <SCORE.INTER.ROT>
9

>  <SCORE.INTER.VDW>
-32.9196

>  <SCORE.INTER.norm>
-0.723052

>  <SCORE.INTRA>
-3.46102

>  <SCORE.INTRA.DIHEDRAL>
-3.02541

>  <SCORE.INTRA.DIHEDRAL.0>
8.37942

>  <SCORE.INTRA.POLAR>
-0.0574143

>  <SCORE.INTRA.POLAR.0>
0

>  <SCORE.INTRA.REPUL>
0

>  <SCORE.INTRA.REPUL.0>
0

>  <SCORE.INTRA.VDW>
-1.75311

>  <SCORE.INTRA.VDW.0>
-0.0658046

>  <SCORE.INTRA.norm>
-0.104879

>  <SCORE.RESTR>
0

>  <SCORE.RESTR.CAVITY>
0

>  <SCORE.RESTR.norm>
0

>  <SCORE.SYSTEM>
-8.03577

>  <SCORE.SYSTEM.CONST>
0

>  <SCORE.SYSTEM.DIHEDRAL>
2.87871

>  <SCORE.SYSTEM.POLAR>
-2.49466

>  <SCORE.SYSTEM.REPUL>
0.372043

>  <SCORE.SYSTEM.VDW>
-2.85348

>  <SCORE.SYSTEM.norm>
-0.243508

>  <SCORE.heavy>
33

>  <SCORE.norm>
-1.07144

$$$$
FXV.pdb
  rDOCK(R)          3D
libRbt.so/2013.1/901 2013/11/27
 38 40  0  0  0  0  0  0  0  0999 V2000
   -2.3762   25.4505   18.1129 C   0  0  0  0  0  0
   -1.9353   24.7850   16.9213 C   0  0  0  0  0  0
   -1.2300   25.5651   15.9343 C   0  0  0  0  0  0
   -0.9893   26.9611   16.1552 C   0  0  0  0  0  0
   -1.4177   27.5871   17.2998 N   0  0  0  0  0  0
   -2.0986   26.8423   18.2594 C   0  0  0  0  0  0
   -3.0784   21.4412   15.3026 C   0  0  0  0  0  0
   -2.6671   20.4694   16.3132 C   0  0  0  0  0  0
   -2.0291   20.9625   17.5079 C   0  0  0  0  0  0
   -1.7992   22.3568   17.7078 C   0  0  0  0  0  0
   -2.1937   23.3220   16.7225 C   0  0  0  0  0  0
   -2.8329   22.8370   15.5294 C   0  0  0  0  0  0
   -2.8492   19.0286   16.1752 C   0  0  0  0  0  0
   -3.2400   18.6271   14.9500 N   0  0  0  0  0  0
   -3.4326   17.2433   14.5967 C   0  0  0  0  0  0
   -4.8098   16.8098   15.1442 C   0  0  0  0  0  0
   -2.2178   16.4148   15.1595 C   0  0  0  0  0  0
   -0.8965   17.0734   14.7212 C   0  0  0  0  0  0
    0.0683   16.9384   15.6710 O   0  0  0  0  0  0
   -2.2498   14.8719   14.7546 C   0  0  0  0  0  0
   -0.8495   14.2905   16.9107 C   0  0  0  0  0  0
   -0.3603   13.3170   17.8855 C   0  0  0  0  0  0
   -0.7520   11.9258   17.7329 C   0  0  0  0  0  0
   -1.6001   11.5204   16.6533 C   0  0  0  0  0  0
   -2.0756   12.4881   15.6983 C   0  0  0  0  0  0
   -1.7172   13.8834   15.8040 C   0  0  0  0  0  0
    0.5077   13.7193   18.9949 C   0  0  0  0  0  0
    0.8255   14.9994   19.2087 N   0  0  0  0  0  0
    0.9927   12.7766   19.8226 N   0  0  0  0  0  0
   -0.7520   17.6354   13.6914 O   0  0  0  0  0  0
   -2.6401   18.2298   17.1078 O   0  0  0  0  0  0
    1.3789   17.4876   15.5129 C   0  0  0  0  0  0
   -1.1906   28.9140   17.5112 O   0  0  0  0  0  0
   -3.4018   19.3127   14.2622 H   0  0  0  0  0  0
    0.4774   15.6995   18.6105 H   0  0  0  0  0  0
    0.7664   11.8296   19.6765 H   0  0  0  0  0  0
    1.5739   13.0335   20.5746 H   0  0  0  0  0  0
   -1.1210   29.3701   16.6579 H   0  0  0  0  0  0
  1  2  1  0  0  0
  1  6  2  0  0  0
  2  3  1  0  0  0
  2 11  1  0  0  0
  3  4  2  0  0  0
  4  5  1  0  0  0
  5  6  1  0  0  0
  5 33  1  0  0  0
  7  8  2  0  0  0
  7 12  1  0  0  0
  8  9  1  0  0  0
  8 13  1  0  0  0
  9 10  2  0  0  0
 10 11  1  0  0  0
 11 12  2  0  0  0
 13 14  1  0  0  0
 13 31  2  0  0  0
 14 15  1  0  0  0
 14 34  1  0  0  0
 15 16  1  0  0  0
 15 17  1  0  0  0
 17 18  1  0  0  0
 17 20  1  0  0  0
 18 19  1  0  0  0
 18 30  2  0  0  0
 19 32  1  0  0  0
 20 26  1  0  0  0
 21 22  2  0  0  0
 21 26  1  0  0  0
 22 23  1  0  0  0
 22 27  1  0  0  0
 23 24  2  0  0  0
 24 25  1  0  0  0
 25 26  2  0  0  0
 27 28  2  0  0  0
 27 29  1  0  0  0
 28 35  1  0  0  0
 29 36  1  0  0  0
 29 37  1  0  0  0
 33 38  1  0  0  0
M  END
>  <CHROM.0>
136.98035282,8.54081754,36.91171308,-73.53752112,-63.67423949,-62.21419500
-61.28831304

>  <CHROM.1>
-53.43654860,27.29475541,9.89370369,79.48826515,-51.14545838,145.91516255
-144.91774726,-178.77087839,-19.02769446,3.95095588,-1.56178411,19.01556534
16.52586129,-1.68411437,0.88095716,-3.04570453

>  <FORMUL>
      FXV    C25 H27 N4 O4 1+

>  <HET>
 FXV  A 401      33

>  <HETNAM>
     FXV METHYL-3-(4'-N-OXOPYRIDYLPHENOYL)-3-METHYL-2-(M-AMIDINO
   2 FXV BENZYL)-PROPIONATE

>  <HETSYN>
     FXV FXV673

>  <Name>
FXV.pdb

>  <RI>
0

>  <Rbt.Current_Directory>
/home/malgorzata/Desktop/rDOCK_IFD/Wyniki/8_factor_Xa2/IFD

>  <Rbt.Executable>
rbdock ($Id: //depot/dev/client3/rdock/2013.1/src/exe/rbdock.cxx#4 $)

>  <Rbt.Library>
libRbt.so (2013.1, Build901 2013/11/27)

>  <Rbt.Parameter_File>
/home/malgorzata/Desktop/rDock_2013.1_src/data/scripts/dock.prm

>  <Rbt.Receptor>
cavity.prm

>  <SCORE>
-18.6894

>  <SCORE.INTER>
-12.2563

>  <SCORE.INTER.CONST>
1

>  <SCORE.INTER.POLAR>
-0.938083

>  <SCORE.INTER.REPUL>
0

>  <SCORE.INTER.ROT>
9

>  <SCORE.INTER.VDW>
-23.4668

>  <SCORE.INTER.norm>
-0.371402

>  <SCORE.INTRA>
0.0746691

>  <SCORE.INTRA.DIHEDRAL>
1.44555

>  <SCORE.INTRA.DIHEDRAL.0>
8.37942

>  <SCORE.INTRA.POLAR>
0

>  <SCORE.INTRA.POLAR.0>
0

>  <SCORE.INTRA.REPUL>
0

>  <SCORE.INTRA.REPUL.0>
0

>  <SCORE.INTRA.VDW>
-0.648108

>  <SCORE.INTRA.VDW.0>
-0.0658046

>  <SCORE.INTRA.norm>
0.0022627

>  <SCORE.RESTR>
0

>  <SCORE.RESTR.CAVITY>
0

>  <SCORE.RESTR.norm>
0

>  <SCORE.SYSTEM>
-6.50783

>  <SCORE.SYSTEM.CONST>
0

>  <SCORE.SYSTEM.DIHEDRAL>
1.91279

>  <SCORE.SYSTEM.POLAR>
-2.36789

>  <SCORE.SYSTEM.REPUL>
0.00392257

>  <SCORE.SYSTEM.VDW>
0.566975

>  <SCORE.SYSTEM.norm>
-0.197207

>  <SCORE.heavy>
33

>  <SCORE.norm>
-0.566347

$$$$
FXV.pdb
  rDOCK(R)          3D
libRbt.so/2013.1/901 2013/11/27
 38 40  0  0  0  0  0  0  0  0999 V2000
    2.0185   19.5457   12.2792 C   0  0  0  0  0  0
    1.9687   18.4987   13.2583 C   0  0  0  0  0  0
    2.9511   17.4463   13.1714 C   0  0  0  0  0  0
    3.9365   17.4631   12.1302 C   0  0  0  0  0  0
    3.9729   18.4704   11.1978 N   0  0  0  0  0  0
    3.0294   19.4919   11.2737 C   0  0  0  0  0  0
    0.1870   19.2442   16.6313 C   0  0  0  0  0  0
   -1.0978   18.5751   16.4396 C   0  0  0  0  0  0
   -1.3249   17.8880   15.1930 C   0  0  0  0  0  0
   -0.3320   17.8570   14.1684 C   0  0  0  0  0  0
    0.9321   18.5130   14.3408 C   0  0  0  0  0  0
    1.1661   19.1982   15.5830 C   0  0  0  0  0  0
   -2.1695   18.5769   17.4293 C   0  0  0  0  0  0
   -1.7978   18.9851   18.6583 N   0  0  0  0  0  0
   -2.7156   19.0997   19.7633 C   0  0  0  0  0  0
   -2.2478   20.2838   20.6370 C   0  0  0  0  0  0
   -2.7635   17.7160   20.5129 C   0  0  0  0  0  0
   -3.8343   17.7647   21.6186 C   0  0  0  0  0  0
   -5.0363   18.1768   21.1324 O   0  0  0  0  0  0
   -1.3540   17.2550   21.1014 C   0  0  0  0  0  0
    1.1158   17.6094   20.2514 C   0  0  0  0  0  0
    2.1600   17.3939   19.2512 C   0  0  0  0  0  0
    1.8385   16.6094   18.0709 C   0  0  0  0  0  0
    0.5291   16.0585   17.8949 C   0  0  0  0  0  0
   -0.4923   16.2778   18.8865 C   0  0  0  0  0  0
   -0.2257   17.0491   20.0783 C   0  0  0  0  0  0
    3.5039   17.9520   19.4200 C   0  0  0  0  0  0
    4.0152   18.1971   20.6298 N   0  0  0  0  0  0
    4.2441   18.2192   18.3293 N   0  0  0  0  0  0
   -3.6252   17.4891   22.7489 O   0  0  0  0  0  0
   -3.3397   18.2485   17.1570 O   0  0  0  0  0  0
   -6.1316   18.5147   21.9872 C   0  0  0  0  0  0
    4.9082   18.4878   10.2070 O   0  0  0  0  0  0
   -0.8527   19.2163   18.8088 H   0  0  0  0  0  0
    3.4842   18.0061   21.4365 H   0  0  0  0  0  0
    3.8796   18.0434   17.4318 H   0  0  0  0  0  0
    5.1505   18.5907   18.4284 H   0  0  0  0  0  0
    4.5952   17.9575    9.4575 H   0  0  0  0  0  0
  1  2  1  0  0  0
  1  6  2  0  0  0
  2  3  1  0  0  0
  2 11  1  0  0  0
  3  4  2  0  0  0
  4  5  1  0  0  0
  5  6  1  0  0  0
  5 33  1  0  0  0
  7  8  2  0  0  0
  7 12  1  0  0  0
  8  9  1  0  0  0
  8 13  1  0  0  0
  9 10  2  0  0  0
 10 11  1  0  0  0
 11 12  2  0  0  0
 13 14  1  0  0  0
 13 31  2  0  0  0
 14 15  1  0  0  0
 14 34  1  0  0  0
 15 16  1  0  0  0
 15 17  1  0  0  0
 17 18  1  0  0  0
 17 20  1  0  0  0
 18 19  1  0  0  0
 18 30  2  0  0  0
 19 32  1  0  0  0
 20 26  1  0  0  0
 21 22  2  0  0  0
 21 26  1  0  0  0
 22 23  1  0  0  0
 22 27  1  0  0  0
 23 24  2  0  0  0
 24 25  1  0  0  0
 25 26  2  0  0  0
 27 28  2  0  0  0
 27 29  1  0  0  0
 28 35  1  0  0  0
 29 36  1  0  0  0
 29 37  1  0  0  0
 33 38  1  0  0  0
M  END
>  <CHROM.0>
-112.23061619,6.90260389,-96.05664256,66.76595916,-175.10776668,-63.30810300
-61.28831304

>  <CHROM.1>
91.40019792,85.81361454,-14.07046101,-146.70859341,-174.71305199,52.57121588
-60.89502932,-169.54657576,131.85257740,27.16571739,0.08910296,18.14280472
17.35389686,0.92173592,0.12372980,-1.43890162

>  <FORMUL>
      FXV    C25 H27 N4 O4 1+

>  <HET>
 FXV  A 401      33

>  <HETNAM>
     FXV METHYL-3-(4'-N-OXOPYRIDYLPHENOYL)-3-METHYL-2-(M-AMIDINO
   2 FXV BENZYL)-PROPIONATE

>  <HETSYN>
     FXV FXV673

>  <Name>
FXV.pdb

>  <RI>
0

>  <Rbt.Current_Directory>
/home/malgorzata/Desktop/rDOCK_IFD/Wyniki/8_factor_Xa2/IFD

>  <Rbt.Executable>
rbdock ($Id: //depot/dev/client3/rdock/2013.1/src/exe/rbdock.cxx#4 $)

>  <Rbt.Library>
libRbt.so (2013.1, Build901 2013/11/27)

>  <Rbt.Parameter_File>
/home/malgorzata/Desktop/rDock_2013.1_src/data/scripts/dock.prm

>  <Rbt.Receptor>
cavity.prm

>  <SCORE>
-26.0104

>  <SCORE.INTER>
-14.3598

>  <SCORE.INTER.CONST>
1

>  <SCORE.INTER.POLAR>
-2.25055

>  <SCORE.INTER.REPUL>
0.0158267

>  <SCORE.INTER.ROT>
9

>  <SCORE.INTER.VDW>
-21.1871

>  <SCORE.INTER.norm>
-0.435146

>  <SCORE.INTRA>
-2.05085

>  <SCORE.INTRA.DIHEDRAL>
3.16147

>  <SCORE.INTRA.DIHEDRAL.0>
8.37942

>  <SCORE.INTRA.POLAR>
0

>  <SCORE.INTRA.POLAR.0>
0

>  <SCORE.INTRA.REPUL>
0

>  <SCORE.INTRA.REPUL.0>
0

>  <SCORE.INTRA.VDW>
-3.63159

>  <SCORE.INTRA.VDW.0>
-0.0658046

>  <SCORE.INTRA.norm>
-0.0621471

>  <SCORE.RESTR>
0.0315506

>  <SCORE.RESTR.CAVITY>
0.0315506

>  <SCORE.RESTR.norm>
0.000956079

>  <SCORE.SYSTEM>
-9.63126

>  <SCORE.SYSTEM.CONST>
0

>  <SCORE.SYSTEM.DIHEDRAL>
1.31286

>  <SCORE.SYSTEM.POLAR>
-2.04538

>  <SCORE.SYSTEM.REPUL>
0.121504

>  <SCORE.SYSTEM.VDW>
-3.94091

>  <SCORE.SYSTEM.norm>
-0.291856

>  <SCORE.heavy>
33

>  <SCORE.norm>
-0.788193

$$$$
FXV.pdb
  rDOCK(R)          3D
libRbt.so/2013.1/901 2013/11/27
 38 40  0  0  0  0  0  0  0  0999 V2000
   -1.4591   24.8122   15.3530 C   0  0  0  0  0  0
   -1.8323   23.9362   16.4257 C   0  0  0  0  0  0
   -1.9189   24.4935   17.7531 C   0  0  0  0  0  0
   -1.6346   25.8814   17.9729 C   0  0  0  0  0  0
   -1.2769   26.7097   16.9378 N   0  0  0  0  0  0
   -1.1917   26.1814   15.6521 C   0  0  0  0  0  0
   -1.5651   20.0589   16.4759 C   0  0  0  0  0  0
   -2.7326   19.6732   15.6865 C   0  0  0  0  0  0
   -3.5673   20.7210   15.1544 C   0  0  0  0  0  0
   -3.2727   22.0979   15.3868 C   0  0  0  0  0  0
   -2.1325   22.4913   16.1634 C   0  0  0  0  0  0
   -1.2943   21.4511   16.6951 C   0  0  0  0  0  0
   -3.1116   18.2898   15.4205 C   0  0  0  0  0  0
   -2.3701   17.3703   16.0684 N   0  0  0  0  0  0
   -2.6115   15.9527   15.9744 C   0  0  0  0  0  0
   -2.3637   15.3440   17.3717 C   0  0  0  0  0  0
   -1.6929   15.3683   14.8371 C   0  0  0  0  0  0
   -1.9470   13.8561   14.6943 C   0  0  0  0  0  0
   -1.4442   13.1629   15.7515 O   0  0  0  0  0  0
   -0.1403   15.6702   15.0465 C   0  0  0  0  0  0
    1.6155   16.9191   13.5281 C   0  0  0  0  0  0
    2.3982   17.0059   12.2964 C   0  0  0  0  0  0
    2.2524   15.9521   11.3063 C   0  0  0  0  0  0
    1.3639   14.8533   11.5351 C   0  0  0  0  0  0
    0.5969   14.7785   12.7520 C   0  0  0  0  0  0
    0.7047   15.7984   13.7691 C   0  0  0  0  0  0
    3.3112   18.1248   12.0507 C   0  0  0  0  0  0
    3.5041   19.0857   12.9589 N   0  0  0  0  0  0
    3.9765   18.1835   10.8833 N   0  0  0  0  0  0
   -2.4995   13.3666   13.7711 O   0  0  0  0  0  0
   -4.0582   17.9818   14.6718 O   0  0  0  0  0  0
   -1.5036   11.7364   15.8282 C   0  0  0  0  0  0
   -1.0056   28.0289   17.1448 O   0  0  0  0  0  0
   -1.6268   17.6821   16.6337 H   0  0  0  0  0  0
    3.0236   19.0550   13.8176 H   0  0  0  0  0  0
    3.8438   17.4821   10.2052 H   0  0  0  0  0  0
    4.5963   18.9279   10.7067 H   0  0  0  0  0  0
   -1.1258   28.5177   16.3157 H   0  0  0  0  0  0
  1  2  1  0  0  0
  1  6  2  0  0  0
  2  3  1  0  0  0
  2 11  1  0  0  0
  3  4  2  0  0  0
  4  5  1  0  0  0
  5  6  1  0  0  0
  5 33  1  0  0  0
  7  8  2  0  0  0
  7 12  1  0  0  0
  8  9  1  0  0  0
  8 13  1  0  0  0
  9 10  2  0  0  0
 10 11  1  0  0  0
 11 12  2  0  0  0
 13 14  1  0  0  0
 13 31  2  0  0  0
 14 15  1  0  0  0
 14 34  1  0  0  0
 15 16  1  0  0  0
 15 17  1  0  0  0
 17 18  1  0  0  0
 17 20  1  0  0  0
 18 19  1  0  0  0
 18 30  2  0  0  0
 19 32  1  0  0  0
 20 26  1  0  0  0
 21 22  2  0  0  0
 21 26  1  0  0  0
 22 23  1  0  0  0
 22 27  1  0  0  0
 23 24  2  0  0  0
 24 25  1  0  0  0
 25 26  2  0  0  0
 27 28  2  0  0  0
 27 29  1  0  0  0
 28 35  1  0  0  0
 29 36  1  0  0  0
 29 37  1  0  0  0
 33 38  1  0  0  0
M  END
>  <CHROM.0>
108.07523801,4.62765390,-61.89841623,-73.00128047,53.19485529,-165.51584818
-61.28831304

>  <CHROM.1>
-66.36707195,-157.31520138,6.04447051,-141.84129994,-178.97049525,-71.39094408
-150.15612196,-177.37213686,130.45043859,2.46846670,-0.88058476,18.91637944
14.96219118,-1.72893152,-0.62580724,-2.98449357

>  <FORMUL>
      FXV    C25 H27 N4 O4 1+

>  <HET>
 FXV  A 401      33

>  <HETNAM>
     FXV METHYL-3-(4'-N-OXOPYRIDYLPHENOYL)-3-METHYL-2-(M-AMIDINO
   2 FXV BENZYL)-PROPIONATE

>  <HETSYN>
     FXV FXV673

>  <Name>
FXV.pdb

>  <RI>
0

>  <Rbt.Current_Directory>
/home/malgorzata/Desktop/rDOCK_IFD/Wyniki/8_factor_Xa2/IFD

>  <Rbt.Executable>
rbdock ($Id: //depot/dev/client3/rdock/2013.1/src/exe/rbdock.cxx#4 $)

>  <Rbt.Library>
libRbt.so (2013.1, Build901 2013/11/27)

>  <Rbt.Parameter_File>
/home/malgorzata/Desktop/rDock_2013.1_src/data/scripts/dock.prm

>  <Rbt.Receptor>
cavity.prm

>  <SCORE>
-29.7316

>  <SCORE.INTER>
-20.1856

>  <SCORE.INTER.CONST>
1

>  <SCORE.INTER.POLAR>
-1.50069

>  <SCORE.INTER.REPUL>
0

>  <SCORE.INTER.ROT>
9

>  <SCORE.INTER.VDW>
-29.4832

>  <SCORE.INTER.norm>
-0.611684

>  <SCORE.INTRA>
-0.414637

>  <SCORE.INTRA.DIHEDRAL>
-1.53266

>  <SCORE.INTRA.DIHEDRAL.0>
8.37942

>  <SCORE.INTRA.POLAR>
0

>  <SCORE.INTRA.POLAR.0>
0

>  <SCORE.INTRA.REPUL>
0

>  <SCORE.INTRA.REPUL.0>
0

>  <SCORE.INTRA.VDW>
0.351693

>  <SCORE.INTRA.VDW.0>
-0.0658046

>  <SCORE.INTRA.norm>
-0.0125648

>  <SCORE.RESTR>
0

>  <SCORE.RESTR.CAVITY>
0

>  <SCORE.RESTR.norm>
0

>  <SCORE.SYSTEM>
-9.13137

>  <SCORE.SYSTEM.CONST>
0

>  <SCORE.SYSTEM.DIHEDRAL>
2.89047

>  <SCORE.SYSTEM.POLAR>
-2.51889

>  <SCORE.SYSTEM.REPUL>
0.22608

>  <SCORE.SYSTEM.VDW>
-3.1428

>  <SCORE.SYSTEM.norm>
-0.276708

>  <SCORE.heavy>
33

>  <SCORE.norm>
-0.900957

$$$$
FXV.pdb
  rDOCK(R)          3D
libRbt.so/2013.1/901 2013/11/27
 38 40  0  0  0  0  0  0  0  0999 V2000
   -2.5512   26.0261   18.1240 C   0  0  0  0  0  0
   -1.8802   25.4514   16.9942 C   0  0  0  0  0  0
   -1.1491   26.3367   16.1213 C   0  0  0  0  0  0
   -1.1085   27.7443   16.3906 C   0  0  0  0  0  0
   -1.7562   28.2827   17.4750 N   0  0  0  0  0  0
   -2.4640   27.4361   18.3246 C   0  0  0  0  0  0
   -3.2696   21.8906   16.2888 C   0  0  0  0  0  0
   -2.0405   21.1036   16.2187 C   0  0  0  0  0  0
   -0.7865   21.7858   16.4184 C   0  0  0  0  0  0
   -0.7349   23.1885   16.6761 C   0  0  0  0  0  0
   -1.9331   23.9746   16.7435 C   0  0  0  0  0  0
   -3.1875   23.2998   16.5476 C   0  0  0  0  0  0
   -2.0081   19.6718   15.9413 C   0  0  0  0  0  0
   -3.1601   19.1677   15.4577 N   0  0  0  0  0  0
   -3.3203   17.7863   15.0799 C   0  0  0  0  0  0
   -4.7269   17.6322   14.4616 C   0  0  0  0  0  0
   -3.0660   16.8926   16.3508 C   0  0  0  0  0  0
   -3.1320   15.4051   15.9575 C   0  0  0  0  0  0
   -4.4155   14.9937   15.7721 O   0  0  0  0  0  0
   -4.0515   17.2075   17.5654 C   0  0  0  0  0  0
   -2.6820   15.6889   19.2287 C   0  0  0  0  0  0
   -2.6269   14.8031   20.3903 C   0  0  0  0  0  0
   -3.8615   14.5112   21.0991 C   0  0  0  0  0  0
   -5.1023   15.0815   20.6695 C   0  0  0  0  0  0
   -5.1449   15.9524   19.5231 C   0  0  0  0  0  0
   -3.9471   16.2759   18.7834 C   0  0  0  0  0  0
   -1.3635   14.2136   20.8402 C   0  0  0  0  0  0
   -0.2044   14.4937   20.2374 N   0  0  0  0  0  0
   -1.3697   13.3732   21.8903 N   0  0  0  0  0  0
   -2.1811   14.7119   15.8458 O   0  0  0  0  0  0
   -0.9917   18.9736   16.1163 O   0  0  0  0  0  0
   -4.7452   13.6414   15.4451 C   0  0  0  0  0  0
   -1.7195   29.6204   17.7323 O   0  0  0  0  0  0
   -3.9303   19.7728   15.3575 H   0  0  0  0  0  0
   -0.1856   15.1073   19.4677 H   0  0  0  0  0  0
   -2.2167   13.1581   22.3437 H   0  0  0  0  0  0
   -0.5272   12.9731   22.2056 H   0  0  0  0  0  0
   -2.3467   29.8305   18.4417 H   0  0  0  0  0  0
  1  2  1  0  0  0
  1  6  2  0  0  0
  2  3  1  0  0  0
  2 11  1  0  0  0
  3  4  2  0  0  0
  4  5  1  0  0  0
  5  6  1  0  0  0
  5 33  1  0  0  0
  7  8  2  0  0  0
  7 12  1  0  0  0
  8  9  1  0  0  0
  8 13  1  0  0  0
  9 10  2  0  0  0
 10 11  1  0  0  0
 11 12  2  0  0  0
 13 14  1  0  0  0
 13 31  2  0  0  0
 14 15  1  0  0  0
 14 34  1  0  0  0
 15 16  1  0  0  0
 15 17  1  0  0  0
 17 18  1  0  0  0
 17 20  1  0  0  0
 18 19  1  0  0  0
 18 30  2  0  0  0
 19 32  1  0  0  0
 20 26  1  0  0  0
 21 22  2  0  0  0
 21 26  1  0  0  0
 22 23  1  0  0  0
 22 27  1  0  0  0
 23 24  2  0  0  0
 24 25  1  0  0  0
 25 26  2  0  0  0
 27 28  2  0  0  0
 27 29  1  0  0  0
 28 35  1  0  0  0
 29 36  1  0  0  0
 29 37  1  0  0  0
 33 38  1  0  0  0
M  END
>  <CHROM.0>
-130.62491720,2.14367410,-99.89532721,-76.20824145,54.86290094,-166.84006791
-61.28831304

>  <CHROM.1>
-121.37213637,170.63523621,14.20251380,-175.03183201,-176.03138065,-75.87258752
174.12872680,-177.85526069,34.48767441,2.23149557,-2.62623360,19.55658019
17.45320868,-1.16643777,1.28554397,2.62341766

>  <FORMUL>
      FXV    C25 H27 N4 O4 1+

>  <HET>
 FXV  A 401      33

>  <HETNAM>
     FXV METHYL-3-(4'-N-OXOPYRIDYLPHENOYL)-3-METHYL-2-(M-AMIDINO
   2 FXV BENZYL)-PROPIONATE

>  <HETSYN>
     FXV FXV673

>  <Name>
FXV.pdb

>  <RI>
0

>  <Rbt.Current_Directory>
/home/malgorzata/Desktop/rDOCK_IFD/Wyniki/8_factor_Xa2/IFD

>  <Rbt.Executable>
rbdock ($Id: //depot/dev/client3/rdock/2013.1/src/exe/rbdock.cxx#4 $)

>  <Rbt.Library>
libRbt.so (2013.1, Build901 2013/11/27)

>  <Rbt.Parameter_File>
/home/malgorzata/Desktop/rDock_2013.1_src/data/scripts/dock.prm

>  <Rbt.Receptor>
cavity.prm

>  <SCORE>
-18.4602

>  <SCORE.INTER>
-7.84481

>  <SCORE.INTER.CONST>
1

>  <SCORE.INTER.POLAR>
-0.811437

>  <SCORE.INTER.REPUL>
0

>  <SCORE.INTER.ROT>
9

>  <SCORE.INTER.VDW>
-19.4859

>  <SCORE.INTER.norm>
-0.237722

>  <SCORE.INTRA>
-1.27453

>  <SCORE.INTRA.DIHEDRAL>
-3.67621

>  <SCORE.INTRA.DIHEDRAL.0>
8.37942

>  <SCORE.INTRA.POLAR>
0

>  <SCORE.INTRA.POLAR.0>
0

>  <SCORE.INTRA.REPUL>
0

>  <SCORE.INTRA.REPUL.0>
0

>  <SCORE.INTRA.VDW>
0.563574

>  <SCORE.INTRA.VDW.0>
-0.0658046

>  <SCORE.INTRA.norm>
-0.0386221

>  <SCORE.RESTR>
0.00226787

>  <SCORE.RESTR.CAVITY>
0.00226787

>  <SCORE.RESTR.norm>
6.87234e-05

>  <SCORE.SYSTEM>
-9.34313

>  <SCORE.SYSTEM.CONST>
0

>  <SCORE.SYSTEM.DIHEDRAL>
3.02493

>  <SCORE.SYSTEM.POLAR>
-2.53994

>  <SCORE.SYSTEM.REPUL>
0.235423

>  <SCORE.SYSTEM.VDW>
-3.39693

>  <SCORE.SYSTEM.norm>
-0.283125

>  <SCORE.heavy>
33

>  <SCORE.norm>
-0.5594

$$$$
