FXV.pdb
  rDOCK(R)          3D
libRbt.so/2013.1/901 2013/11/27
 38 40  0  0  0  0  0  0  0  0999 V2000
    2.7445   19.2821   21.3996 C   0  0  0  0  0  0
    2.5176   18.1842   20.5050 C   0  0  0  0  0  0
    1.7380   17.0707   20.9873 C   0  0  0  0  0  0
    1.2172   17.0792   22.3230 C   0  0  0  0  0  0
    1.4426   18.1358   23.1705 N   0  0  0  0  0  0
    2.1931   19.2163   22.7139 C   0  0  0  0  0  0
    4.6631   17.3074   17.3848 C   0  0  0  0  0  0
    4.1180   18.2240   16.3859 C   0  0  0  0  0  0
    3.0570   19.1126   16.7887 C   0  0  0  0  0  0
    2.5450   19.1050   18.1208 C   0  0  0  0  0  0
    3.0673   18.2078   19.1108 C   0  0  0  0  0  0
    4.1276   17.3204   18.7163 C   0  0  0  0  0  0
    4.5734   18.2795   15.0011 C   0  0  0  0  0  0
    4.6566   19.5221   14.4871 N   0  0  0  0  0  0
    5.1262   19.7945   13.1523 C   0  0  0  0  0  0
    5.7921   21.1877   13.1675 C   0  0  0  0  0  0
    3.9082   19.6655   12.1628 C   0  0  0  0  0  0
    3.2682   18.2727   12.3108 C   0  0  0  0  0  0
    2.3352   18.2540   13.3008 O   0  0  0  0  0  0
    4.2823   19.9646   10.6410 C   0  0  0  0  0  0
    1.7829   20.6705   10.1909 C   0  0  0  0  0  0
    0.6897   20.9586    9.2640 C   0  0  0  0  0  0
    0.9428   20.8479    7.8373 C   0  0  0  0  0  0
    2.2349   20.4678    7.3524 C   0  0  0  0  0  0
    3.3045   20.1854    8.2749 C   0  0  0  0  0  0
    3.1070   20.2812    9.7025 C   0  0  0  0  0  0
   -0.6368   21.3490    9.7477 C   0  0  0  0  0  0
   -1.7547   20.8999    9.1698 N   0  0  0  0  0  0
   -0.7319   22.1764   10.8038 N   0  0  0  0  0  0
    3.5664   17.3387   11.6505 O   0  0  0  0  0  0
    4.8818   17.2628   14.3511 O   0  0  0  0  0  0
    1.3078   17.2617   13.3644 C   0  0  0  0  0  0
    0.9491   18.1454   24.4407 O   0  0  0  0  0  0
    4.3831   20.2813   15.0512 H   0  0  0  0  0  0
   -1.6995   20.2937    8.3960 H   0  0  0  0  0  0
    0.0837   22.5148   11.2390 H   0  0  0  0  0  0
   -1.6172   22.4436   11.1417 H   0  0  0  0  0  0
    1.3184   17.3981   24.9367 H   0  0  0  0  0  0
  1  2  1  0  0  0
  1  6  2  0  0  0
  2  3  1  0  0  0
  2 11  1  0  0  0
  3  4  2  0  0  0
  4  5  1  0  0  0
  5  6  1  0  0  0
  5 33  1  0  0  0
  7  8  2  0  0  0
  7 12  1  0  0  0
  8  9  1  0  0  0
  8 13  1  0  0  0
  9 10  2  0  0  0
 10 11  1  0  0  0
 11 12  2  0  0  0
 13 14  1  0  0  0
 13 31  2  0  0  0
 14 15  1  0  0  0
 14 34  1  0  0  0
 15 16  1  0  0  0
 15 17  1  0  0  0
 17 18  1  0  0  0
 17 20  1  0  0  0
 18 19  1  0  0  0
 18 30  2  0  0  0
 19 32  1  0  0  0
 20 26  1  0  0  0
 21 22  2  0  0  0
 21 26  1  0  0  0
 22 23  1  0  0  0
 22 27  1  0  0  0
 23 24  2  0  0  0
 24 25  1  0  0  0
 25 26  2  0  0  0
 27 28  2  0  0  0
 27 29  1  0  0  0
 28 35  1  0  0  0
 29 36  1  0  0  0
 29 37  1  0  0  0
 33 38  1  0  0  0
M  END
>  <CHROM.0>
50.82686351,-38.92932073,-130.90364151,-59.50298530,-9.38484495,-61.56571275
159.16212863

>  <CHROM.1>
-69.71609308,61.13039755,-140.70009588,-149.83447879,-55.94465847,86.80897141
-161.88084143,159.09172460,17.11225206,-140.44029795,2.61789730,19.11045660
14.81127448,1.53371390,-0.31104765,1.75067698

>  <FORMUL>
      FXV    C25 H27 N4 O4 1+

>  <HET>
 FXV  A 401      33

>  <HETNAM>
     FXV METHYL-3-(4'-N-OXOPYRIDYLPHENOYL)-3-METHYL-2-(M-AMIDINO
   2 FXV BENZYL)-PROPIONATE

>  <HETSYN>
     FXV FXV673

>  <Name>
FXV.pdb

>  <RI>
0

>  <Rbt.Current_Directory>
/home/malgorzata/Desktop/rDOCK_IFD/Wyniki/8_factor_Xa2/IFD

>  <Rbt.Executable>
rbdock ($Id: //depot/dev/client3/rdock/2013.1/src/exe/rbdock.cxx#4 $)

>  <Rbt.Library>
libRbt.so (2013.1, Build901 2013/11/27)

>  <Rbt.Parameter_File>
/home/malgorzata/Desktop/rDock_2013.1_src/data/scripts/soft_docking.prm

>  <Rbt.Receptor>
cavity.prm

>  <SCORE>
-37.5869

>  <SCORE.INTER>
-36.3047

>  <SCORE.INTER.CONST>
1

>  <SCORE.INTER.POLAR>
-1.42336

>  <SCORE.INTER.REPUL>
0.314426

>  <SCORE.INTER.ROT>
9

>  <SCORE.INTER.VDW>
-47.4374

>  <SCORE.INTER.norm>
-1.10014

>  <SCORE.INTRA>
0.209363

>  <SCORE.INTRA.DIHEDRAL>
14.1408

>  <SCORE.INTRA.DIHEDRAL.0>
8.37942

>  <SCORE.INTRA.POLAR>
0

>  <SCORE.INTRA.POLAR.0>
0

>  <SCORE.INTRA.REPUL>
0

>  <SCORE.INTRA.REPUL.0>
0

>  <SCORE.INTRA.VDW>
-2.61879

>  <SCORE.INTRA.VDW.0>
-0.0658046

>  <SCORE.INTRA.norm>
0.00634432

>  <SCORE.RESTR>
0.282741

>  <SCORE.RESTR.CAVITY>
0.0565482

>  <SCORE.RESTR.norm>
0.0085679

>  <SCORE.SYSTEM>
-1.77427

>  <SCORE.SYSTEM.CONST>
0

>  <SCORE.SYSTEM.DIHEDRAL>
10.5022

>  <SCORE.SYSTEM.POLAR>
-1.30938

>  <SCORE.SYSTEM.REPUL>
0.137567

>  <SCORE.SYSTEM.VDW>
-3.26133

>  <SCORE.SYSTEM.norm>
-0.0537659

>  <SCORE.heavy>
33

>  <SCORE.norm>
-1.139

$$$$
FXV.pdb
  rDOCK(R)          3D
libRbt.so/2013.1/901 2013/11/27
 38 40  0  0  0  0  0  0  0  0999 V2000
   -3.8830   27.9275   17.5232 C   0  0  0  0  0  0
   -4.0803   26.5702   17.9428 C   0  0  0  0  0  0
   -5.4071   26.1750   18.3473 C   0  0  0  0  0  0
   -6.4809   27.1247   18.3258 C   0  0  0  0  0  0
   -6.2790   28.4219   17.9233 N   0  0  0  0  0  0
   -5.0017   28.8130   17.5296 C   0  0  0  0  0  0
   -0.5381   25.0611   18.4750 C   0  0  0  0  0  0
   -0.7237   23.6959   17.9885 C   0  0  0  0  0  0
   -2.0241   23.3251   17.4893 C   0  0  0  0  0  0
   -3.1062   24.2553   17.4676 C   0  0  0  0  0  0
   -2.9399   25.5975   17.9460 C   0  0  0  0  0  0
   -1.6446   25.9747   18.4431 C   0  0  0  0  0  0
    0.3254   22.6823   17.9948 C   0  0  0  0  0  0
   -0.1036   21.4291   17.7486 N   0  0  0  0  0  0
    0.7801   20.2937   17.6683 C   0  0  0  0  0  0
    1.3589   20.2536   16.2373 C   0  0  0  0  0  0
   -0.0282   19.0069   18.0803 C   0  0  0  0  0  0
   -0.7000   19.2349   19.4471 C   0  0  0  0  0  0
   -1.9812   18.7774   19.4567 O   0  0  0  0  0  0
    0.8476   17.6733   18.0886 C   0  0  0  0  0  0
    3.3404   18.0504   17.3195 C   0  0  0  0  0  0
    4.7592   18.2073   17.6354 C   0  0  0  0  0  0
    5.1694   18.1551   19.0286 C   0  0  0  0  0  0
    4.2040   17.9571   20.0669 C   0  0  0  0  0  0
    2.8088   17.8030   19.7439 C   0  0  0  0  0  0
    2.3473   17.8477   18.3759 C   0  0  0  0  0  0
    5.7567   18.4109   16.5821 C   0  0  0  0  0  0
    5.6884   19.4473   15.7416 N   0  0  0  0  0  0
    6.7703   17.5351   16.4614 N   0  0  0  0  0  0
   -0.1652   19.7552   20.3638 O   0  0  0  0  0  0
    1.5250   22.9543   18.1906 O   0  0  0  0  0  0
   -2.3583   17.5467   18.8344 C   0  0  0  0  0  0
   -7.2981   29.3262   17.9028 O   0  0  0  0  0  0
   -1.0681   21.2818   17.6170 H   0  0  0  0  0  0
    4.9518   20.0959   15.8188 H   0  0  0  0  0  0
    6.8327   16.7669   17.0740 H   0  0  0  0  0  0
    7.4499   17.6621   15.7604 H   0  0  0  0  0  0
   -7.0696   30.0574   17.3079 H   0  0  0  0  0  0
  1  2  1  0  0  0
  1  6  2  0  0  0
  2  3  1  0  0  0
  2 11  1  0  0  0
  3  4  2  0  0  0
  4  5  1  0  0  0
  5  6  1  0  0  0
  5 33  1  0  0  0
  7  8  2  0  0  0
  7 12  1  0  0  0
  8  9  1  0  0  0
  8 13  1  0  0  0
  9 10  2  0  0  0
 10 11  1  0  0  0
 11 12  2  0  0  0
 13 14  1  0  0  0
 13 31  2  0  0  0
 14 15  1  0  0  0
 14 34  1  0  0  0
 15 16  1  0  0  0
 15 17  1  0  0  0
 17 18  1  0  0  0
 17 20  1  0  0  0
 18 19  1  0  0  0
 18 30  2  0  0  0
 19 32  1  0  0  0
 20 26  1  0  0  0
 21 22  2  0  0  0
 21 26  1  0  0  0
 22 23  1  0  0  0
 22 27  1  0  0  0
 23 24  2  0  0  0
 24 25  1  0  0  0
 25 26  2  0  0  0
 27 28  2  0  0  0
 27 29  1  0  0  0
 28 35  1  0  0  0
 29 36  1  0  0  0
 29 37  1  0  0  0
 33 38  1  0  0  0
M  END
>  <CHROM.0>
132.54976758,-63.24554552,47.99760995,118.25400820,29.41639203,-61.56571275
-9.34564566

>  <CHROM.1>
-137.16283597,-159.35244216,167.90649246,-83.43199410,-52.93316495,136.62981357
28.35407419,40.78278774,-91.00002359,58.87449320,-0.29975751,21.96732640
18.06737913,-2.37643023,-0.29102964,2.85759246

>  <FORMUL>
      FXV    C25 H27 N4 O4 1+

>  <HET>
 FXV  A 401      33

>  <HETNAM>
     FXV METHYL-3-(4'-N-OXOPYRIDYLPHENOYL)-3-METHYL-2-(M-AMIDINO
   2 FXV BENZYL)-PROPIONATE

>  <HETSYN>
     FXV FXV673

>  <Name>
FXV.pdb

>  <RI>
0

>  <Rbt.Current_Directory>
/home/malgorzata/Desktop/rDOCK_IFD/Wyniki/8_factor_Xa2/IFD

>  <Rbt.Executable>
rbdock ($Id: //depot/dev/client3/rdock/2013.1/src/exe/rbdock.cxx#4 $)

>  <Rbt.Library>
libRbt.so (2013.1, Build901 2013/11/27)

>  <Rbt.Parameter_File>
/home/malgorzata/Desktop/rDock_2013.1_src/data/scripts/soft_docking.prm

>  <Rbt.Receptor>
cavity.prm

>  <SCORE>
-20.7505

>  <SCORE.INTER>
-25.5573

>  <SCORE.INTER.CONST>
1

>  <SCORE.INTER.POLAR>
-0.76936

>  <SCORE.INTER.REPUL>
0.448062

>  <SCORE.INTER.ROT>
9

>  <SCORE.INTER.VDW>
-39.5818

>  <SCORE.INTER.norm>
-0.774463

>  <SCORE.INTRA>
4.9522

>  <SCORE.INTRA.DIHEDRAL>
20.4819

>  <SCORE.INTRA.DIHEDRAL.0>
8.37942

>  <SCORE.INTRA.POLAR>
0

>  <SCORE.INTRA.POLAR.0>
0

>  <SCORE.INTRA.REPUL>
0

>  <SCORE.INTRA.REPUL.0>
0

>  <SCORE.INTRA.VDW>
0.855824

>  <SCORE.INTRA.VDW.0>
-0.0658046

>  <SCORE.INTRA.norm>
0.150067

>  <SCORE.RESTR>
2.22176

>  <SCORE.RESTR.CAVITY>
0.444353

>  <SCORE.RESTR.norm>
0.0673262

>  <SCORE.SYSTEM>
-2.36714

>  <SCORE.SYSTEM.CONST>
0

>  <SCORE.SYSTEM.DIHEDRAL>
8.89479

>  <SCORE.SYSTEM.POLAR>
-1.25873

>  <SCORE.SYSTEM.REPUL>
0.137603

>  <SCORE.SYSTEM.VDW>
-3.22288

>  <SCORE.SYSTEM.norm>
-0.0717316

>  <SCORE.heavy>
33

>  <SCORE.norm>
-0.628802

$$$$
FXV.pdb
  rDOCK(R)          3D
libRbt.so/2013.1/901 2013/11/27
 38 40  0  0  0  0  0  0  0  0999 V2000
    1.4178   20.9734   10.0998 C   0  0  0  0  0  0
    2.2569   19.8289   10.3074 C   0  0  0  0  0  0
    2.6287   19.0467    9.1541 C   0  0  0  0  0  0
    2.1619   19.4168    7.8501 C   0  0  0  0  0  0
    1.3578   20.5143    7.6645 N   0  0  0  0  0  0
    0.9941   21.2768    8.7716 C   0  0  0  0  0  0
    4.5917   19.3649   13.3800 C   0  0  0  0  0  0
    3.6696   18.8123   14.3695 C   0  0  0  0  0  0
    2.2987   18.6034   13.9763 C   0  0  0  0  0  0
    1.8439   18.9248   12.6622 C   0  0  0  0  0  0
    2.7368   19.4719   11.6818 C   0  0  0  0  0  0
    4.1063   19.6806   12.0668 C   0  0  0  0  0  0
    4.0519   18.4762   15.7366 C   0  0  0  0  0  0
    3.0351   18.4791   16.6205 N   0  0  0  0  0  0
    3.1959   18.1323   18.0099 C   0  0  0  0  0  0
    3.0129   16.6039   18.1331 C   0  0  0  0  0  0
    2.1728   18.9808   18.8538 C   0  0  0  0  0  0
    1.9956   18.3425   20.2440 C   0  0  0  0  0  0
    2.5467   19.1121   21.2213 O   0  0  0  0  0  0
    0.7633   19.1879   18.1355 C   0  0  0  0  0  0
   -0.7824   21.0606   17.1100 C   0  0  0  0  0  0
   -1.2447   22.4469   17.0689 C   0  0  0  0  0  0
   -0.6588   23.4012   17.9953 C   0  0  0  0  0  0
    0.3461   22.9902   18.9283 C   0  0  0  0  0  0
    0.7945   21.6218   18.9594 C   0  0  0  0  0  0
    0.2449   20.6329   18.0614 C   0  0  0  0  0  0
   -2.2726   22.8798   16.1193 C   0  0  0  0  0  0
   -3.1880   22.0320   15.6410 N   0  0  0  0  0  0
   -2.2991   24.1648   15.7228 N   0  0  0  0  0  0
    1.4578   17.3061   20.4278 O   0  0  0  0  0  0
    5.2201   18.1884   16.0590 O   0  0  0  0  0  0
    2.1268   19.0318   22.5856 C   0  0  0  0  0  0
    0.9125   20.8674    6.4260 O   0  0  0  0  0  0
    2.1382   18.7306   16.3016 H   0  0  0  0  0  0
   -3.1801   21.0888   15.9229 H   0  0  0  0  0  0
   -1.6306   24.8001   16.0674 H   0  0  0  0  0  0
   -2.9871   24.4701   15.0881 H   0  0  0  0  0  0
    1.6052   20.6898    5.7706 H   0  0  0  0  0  0
  1  2  1  0  0  0
  1  6  2  0  0  0
  2  3  1  0  0  0
  2 11  1  0  0  0
  3  4  2  0  0  0
  4  5  1  0  0  0
  5  6  1  0  0  0
  5 33  1  0  0  0
  7  8  2  0  0  0
  7 12  1  0  0  0
  8  9  1  0  0  0
  8 13  1  0  0  0
  9 10  2  0  0  0
 10 11  1  0  0  0
 11 12  2  0  0  0
 13 14  1  0  0  0
 13 31  2  0  0  0
 14 15  1  0  0  0
 14 34  1  0  0  0
 15 16  1  0  0  0
 15 17  1  0  0  0
 17 18  1  0  0  0
 17 20  1  0  0  0
 18 19  1  0  0  0
 18 30  2  0  0  0
 19 32  1  0  0  0
 20 26  1  0  0  0
 21 22  2  0  0  0
 21 26  1  0  0  0
 22 23  1  0  0  0
 22 27  1  0  0  0
 23 24  2  0  0  0
 24 25  1  0  0  0
 25 26  2  0  0  0
 27 28  2  0  0  0
 27 29  1  0  0  0
 28 35  1  0  0  0
 29 36  1  0  0  0
 29 37  1  0  0  0
 33 38  1  0  0  0
M  END
>  <CHROM.0>
-166.61781708,52.82077168,-134.79534173,-121.42105495,77.57232410,-61.56571275
-39.25657146

>  <CHROM.1>
72.17579879,-36.48232843,155.62033046,-88.14624653,162.27948982,110.26699185
-129.48438502,156.74222030,160.57906888,26.84969429,1.55474981,19.97525014
15.18776474,1.51615365,0.72885505,-1.47670589

>  <FORMUL>
      FXV    C25 H27 N4 O4 1+

>  <HET>
 FXV  A 401      33

>  <HETNAM>
     FXV METHYL-3-(4'-N-OXOPYRIDYLPHENOYL)-3-METHYL-2-(M-AMIDINO
   2 FXV BENZYL)-PROPIONATE

>  <HETSYN>
     FXV FXV673

>  <Name>
FXV.pdb

>  <RI>
0

>  <Rbt.Current_Directory>
/home/malgorzata/Desktop/rDOCK_IFD/Wyniki/8_factor_Xa2/IFD

>  <Rbt.Executable>
rbdock ($Id: //depot/dev/client3/rdock/2013.1/src/exe/rbdock.cxx#4 $)

>  <Rbt.Library>
libRbt.so (2013.1, Build901 2013/11/27)

>  <Rbt.Parameter_File>
/home/malgorzata/Desktop/rDock_2013.1_src/data/scripts/soft_docking.prm

>  <Rbt.Receptor>
cavity.prm

>  <SCORE>
-34.3272

>  <SCORE.INTER>
-35.6074

>  <SCORE.INTER.CONST>
1

>  <SCORE.INTER.POLAR>
-0.699219

>  <SCORE.INTER.REPUL>
0

>  <SCORE.INTER.ROT>
9

>  <SCORE.INTER.VDW>
-47.6301

>  <SCORE.INTER.norm>
-1.07901

>  <SCORE.INTRA>
4.65314

>  <SCORE.INTRA.DIHEDRAL>
13.9494

>  <SCORE.INTRA.DIHEDRAL.0>
8.37942

>  <SCORE.INTRA.POLAR>
0

>  <SCORE.INTRA.POLAR.0>
0

>  <SCORE.INTRA.REPUL>
0

>  <SCORE.INTRA.REPUL.0>
0

>  <SCORE.INTRA.VDW>
1.86326

>  <SCORE.INTRA.VDW.0>
-0.0658046

>  <SCORE.INTRA.norm>
0.141004

>  <SCORE.RESTR>
0

>  <SCORE.RESTR.CAVITY>
0

>  <SCORE.RESTR.norm>
0

>  <SCORE.SYSTEM>
-3.3729

>  <SCORE.SYSTEM.CONST>
0

>  <SCORE.SYSTEM.DIHEDRAL>
7.63157

>  <SCORE.SYSTEM.POLAR>
-1.18801

>  <SCORE.SYSTEM.REPUL>
0.137567

>  <SCORE.SYSTEM.VDW>
-3.83727

>  <SCORE.SYSTEM.norm>
-0.102209

>  <SCORE.heavy>
33

>  <SCORE.norm>
-1.04022

$$$$
FXV.pdb
  rDOCK(R)          3D
libRbt.so/2013.1/901 2013/11/27
 38 40  0  0  0  0  0  0  0  0999 V2000
    0.7404   19.7605    8.7737 C   0  0  0  0  0  0
    2.1388   19.6294    9.0644 C   0  0  0  0  0  0
    3.0603   19.6148    7.9549 C   0  0  0  0  0  0
    2.5734   19.7266    6.6110 C   0  0  0  0  0  0
    1.2319   19.8502    6.3456 N   0  0  0  0  0  0
    0.3341   19.8665    7.4100 C   0  0  0  0  0  0
    2.6483   18.3058   12.6832 C   0  0  0  0  0  0
    3.5785   19.2917   13.2289 C   0  0  0  0  0  0
    3.9991   20.3729   12.3735 C   0  0  0  0  0  0
    3.5286   20.4863   11.0309 C   0  0  0  0  0  0
    2.6187   19.5236   10.4804 C   0  0  0  0  0  0
    2.1932   18.4438   11.3291 C   0  0  0  0  0  0
    4.1191   19.2353   14.5827 C   0  0  0  0  0  0
    3.2675   19.6415   15.5444 N   0  0  0  0  0  0
    3.5937   19.6211   16.9479 C   0  0  0  0  0  0
    3.3772   18.1791   17.4560 C   0  0  0  0  0  0
    2.7164   20.7069   17.6761 C   0  0  0  0  0  0
    2.6573   20.3968   19.1833 C   0  0  0  0  0  0
    2.9520   21.4944   19.9313 O   0  0  0  0  0  0
    1.2504   20.8631   17.0662 C   0  0  0  0  0  0
   -0.1602   23.0896   17.0994 C   0  0  0  0  0  0
   -1.0302   24.0338   17.7984 C   0  0  0  0  0  0
   -1.3997   23.7484   19.1746 C   0  0  0  0  0  0
   -0.9236   22.5672   19.8283 C   0  0  0  0  0  0
   -0.0663   21.6441   19.1301 C   0  0  0  0  0  0
    0.3306   21.8794   17.7613 C   0  0  0  0  0  0
   -1.5242   25.2458   17.1404 C   0  0  0  0  0  0
   -1.8372   25.2613   15.8415 N   0  0  0  0  0  0
   -1.6719   26.3702   17.8635 N   0  0  0  0  0  0
    2.3997   19.3314   19.6257 O   0  0  0  0  0  0
    5.2679   18.8247   14.8337 O   0  0  0  0  0  0
    3.1007   21.4339   21.3521 C   0  0  0  0  0  0
    0.7672   19.9558    5.0690 O   0  0  0  0  0  0
    2.3786   19.9683   15.2751 H   0  0  0  0  0  0
   -1.7339   24.4453   15.3005 H   0  0  0  0  0  0
   -1.4450   26.3728   18.8215 H   0  0  0  0  0  0
   -2.0068   27.1909   17.4348 H   0  0  0  0  0  0
    1.4002   20.4612    4.5353 H   0  0  0  0  0  0
  1  2  1  0  0  0
  1  6  2  0  0  0
  2  3  1  0  0  0
  2 11  1  0  0  0
  3  4  2  0  0  0
  4  5  1  0  0  0
  5  6  1  0  0  0
  5 33  1  0  0  0
  7  8  2  0  0  0
  7 12  1  0  0  0
  8  9  1  0  0  0
  8 13  1  0  0  0
  9 10  2  0  0  0
 10 11  1  0  0  0
 11 12  2  0  0  0
 13 14  1  0  0  0
 13 31  2  0  0  0
 14 15  1  0  0  0
 14 34  1  0  0  0
 15 16  1  0  0  0
 15 17  1  0  0  0
 17 18  1  0  0  0
 17 20  1  0  0  0
 18 19  1  0  0  0
 18 30  2  0  0  0
 19 32  1  0  0  0
 20 26  1  0  0  0
 21 22  2  0  0  0
 21 26  1  0  0  0
 22 23  1  0  0  0
 22 27  1  0  0  0
 23 24  2  0  0  0
 24 25  1  0  0  0
 25 26  2  0  0  0
 27 28  2  0  0  0
 27 29  1  0  0  0
 28 35  1  0  0  0
 29 36  1  0  0  0
 29 37  1  0  0  0
 33 38  1  0  0  0
M  END
>  <CHROM.0>
123.67869705,18.27688367,83.36128363,159.10044776,36.59147241,-61.56571275
-63.55693177

>  <CHROM.1>
-120.24869826,-35.13141118,-77.44752517,-81.09472879,160.29712548,130.29946782
178.26099438,-173.35700742,115.29778805,35.54513096,1.70304981,20.86615769
14.52325096,1.42067806,0.77847057,-1.70733914

>  <FORMUL>
      FXV    C25 H27 N4 O4 1+

>  <HET>
 FXV  A 401      33

>  <HETNAM>
     FXV METHYL-3-(4'-N-OXOPYRIDYLPHENOYL)-3-METHYL-2-(M-AMIDINO
   2 FXV BENZYL)-PROPIONATE

>  <HETSYN>
     FXV FXV673

>  <Name>
FXV.pdb

>  <RI>
0

>  <Rbt.Current_Directory>
/home/malgorzata/Desktop/rDOCK_IFD/Wyniki/8_factor_Xa2/IFD

>  <Rbt.Executable>
rbdock ($Id: //depot/dev/client3/rdock/2013.1/src/exe/rbdock.cxx#4 $)

>  <Rbt.Library>
libRbt.so (2013.1, Build901 2013/11/27)

>  <Rbt.Parameter_File>
/home/malgorzata/Desktop/rDock_2013.1_src/data/scripts/soft_docking.prm

>  <Rbt.Receptor>
cavity.prm

>  <SCORE>
-32.4057

>  <SCORE.INTER>
-38.4305

>  <SCORE.INTER.CONST>
1

>  <SCORE.INTER.POLAR>
-1.29754

>  <SCORE.INTER.REPUL>
0.193713

>  <SCORE.INTER.ROT>
9

>  <SCORE.INTER.VDW>
-49.3874

>  <SCORE.INTER.norm>
-1.16456

>  <SCORE.INTRA>
5.83545

>  <SCORE.INTRA.DIHEDRAL>
17.1379

>  <SCORE.INTRA.DIHEDRAL.0>
8.37942

>  <SCORE.INTRA.POLAR>
0

>  <SCORE.INTRA.POLAR.0>
0

>  <SCORE.INTRA.REPUL>
0

>  <SCORE.INTRA.REPUL.0>
0

>  <SCORE.INTRA.VDW>
2.40787

>  <SCORE.INTRA.VDW.0>
-0.0658046

>  <SCORE.INTRA.norm>
0.176832

>  <SCORE.RESTR>
2.944

>  <SCORE.RESTR.CAVITY>
0.5888

>  <SCORE.RESTR.norm>
0.0892121

>  <SCORE.SYSTEM>
-2.7547

>  <SCORE.SYSTEM.CONST>
0

>  <SCORE.SYSTEM.DIHEDRAL>
7.9448

>  <SCORE.SYSTEM.POLAR>
-1.31365

>  <SCORE.SYSTEM.REPUL>
0.137567

>  <SCORE.SYSTEM.VDW>
-2.94853

>  <SCORE.SYSTEM.norm>
-0.0834759

>  <SCORE.heavy>
33

>  <SCORE.norm>
-0.981992

$$$$
FXV.pdb
  rDOCK(R)          3D
libRbt.so/2013.1/901 2013/11/27
 38 40  0  0  0  0  0  0  0  0999 V2000
   -2.2913   26.0367   16.7963 C   0  0  0  0  0  0
   -1.1138   25.4927   17.4084 C   0  0  0  0  0  0
   -0.3128   26.3688   18.2276 C   0  0  0  0  0  0
   -0.6974   27.7378   18.4099 C   0  0  0  0  0  0
   -1.8266   28.2473   17.8174 N   0  0  0  0  0  0
   -2.6073   27.4091   17.0254 C   0  0  0  0  0  0
    0.6236   22.0462   17.8678 C   0  0  0  0  0  0
   -0.0394   21.2435   16.8426 C   0  0  0  0  0  0
   -1.0396   21.8814   16.0238 C   0  0  0  0  0  0
   -1.3815   23.2555   16.2014 C   0  0  0  0  0  0
   -0.7421   24.0547   17.2067 C   0  0  0  0  0  0
    0.2583   23.4252   18.0253 C   0  0  0  0  0  0
    0.2399   19.8304   16.6116 C   0  0  0  0  0  0
    0.0100   19.0322   17.6724 N   0  0  0  0  0  0
    0.1822   17.6020   17.6361 C   0  0  0  0  0  0
   -1.2213   16.9657   17.5376 C   0  0  0  0  0  0
    1.0054   17.1699   18.9068 C   0  0  0  0  0  0
    0.9707   18.2994   19.9530 C   0  0  0  0  0  0
    1.6263   17.9463   21.0916 O   0  0  0  0  0  0
    2.5062   16.7359   18.5830 C   0  0  0  0  0  0
    3.3481   17.6138   16.2445 C   0  0  0  0  0  0
    4.1378   18.5503   15.4466 C   0  0  0  0  0  0
    4.9010   19.5770   16.1362 C   0  0  0  0  0  0
    4.8764   19.6692   17.5645 C   0  0  0  0  0  0
    4.0954   18.7407   18.3406 C   0  0  0  0  0  0
    3.3181   17.7020   17.7056 C   0  0  0  0  0  0
    4.1708   18.4666   13.9845 C   0  0  0  0  0  0
    3.0530   18.3419   13.2632 N   0  0  0  0  0  0
    5.3563   18.5222   13.3515 N   0  0  0  0  0  0
    0.4282   19.3358   19.7837 O   0  0  0  0  0  0
    0.6384   19.3919   15.5161 O   0  0  0  0  0  0
    1.3817   18.5887   22.3453 C   0  0  0  0  0  0
   -2.1934   29.5484   17.9889 O   0  0  0  0  0  0
   -0.2904   19.4464   18.5135 H   0  0  0  0  0  0
    2.1787   18.3001   13.7137 H   0  0  0  0  0  0
    6.1877   18.6140   13.8708 H   0  0  0  0  0  0
    5.3927   18.4712   12.3690 H   0  0  0  0  0  0
   -2.6743   29.8548   17.2042 H   0  0  0  0  0  0
  1  2  1  0  0  0
  1  6  2  0  0  0
  2  3  1  0  0  0
  2 11  1  0  0  0
  3  4  2  0  0  0
  4  5  1  0  0  0
  5  6  1  0  0  0
  5 33  1  0  0  0
  7  8  2  0  0  0
  7 12  1  0  0  0
  8  9  1  0  0  0
  8 13  1  0  0  0
  9 10  2  0  0  0
 10 11  1  0  0  0
 11 12  2  0  0  0
 13 14  1  0  0  0
 13 31  2  0  0  0
 14 15  1  0  0  0
 14 34  1  0  0  0
 15 16  1  0  0  0
 15 17  1  0  0  0
 17 18  1  0  0  0
 17 20  1  0  0  0
 18 19  1  0  0  0
 18 30  2  0  0  0
 19 32  1  0  0  0
 20 26  1  0  0  0
 21 22  2  0  0  0
 21 26  1  0  0  0
 22 23  1  0  0  0
 22 27  1  0  0  0
 23 24  2  0  0  0
 24 25  1  0  0  0
 25 26  2  0  0  0
 27 28  2  0  0  0
 27 29  1  0  0  0
 28 35  1  0  0  0
 29 36  1  0  0  0
 29 37  1  0  0  0
 33 38  1  0  0  0
M  END
>  <CHROM.0>
-146.01766451,131.21937844,22.51555071,169.88362271,-169.84182021,-61.56571275
15.91954892

>  <CHROM.1>
12.58560624,150.48913315,59.68941174,-103.30609891,17.44585306,177.53962265
49.35544118,-158.78613003,-89.88752643,47.55910649,0.94037374,21.04882138
17.40455001,-2.40163590,-0.93607930,2.47397973

>  <FORMUL>
      FXV    C25 H27 N4 O4 1+

>  <HET>
 FXV  A 401      33

>  <HETNAM>
     FXV METHYL-3-(4'-N-OXOPYRIDYLPHENOYL)-3-METHYL-2-(M-AMIDINO
   2 FXV BENZYL)-PROPIONATE

>  <HETSYN>
     FXV FXV673

>  <Name>
FXV.pdb

>  <RI>
0

>  <Rbt.Current_Directory>
/home/malgorzata/Desktop/rDOCK_IFD/Wyniki/8_factor_Xa2/IFD

>  <Rbt.Executable>
rbdock ($Id: //depot/dev/client3/rdock/2013.1/src/exe/rbdock.cxx#4 $)

>  <Rbt.Library>
libRbt.so (2013.1, Build901 2013/11/27)

>  <Rbt.Parameter_File>
/home/malgorzata/Desktop/rDock_2013.1_src/data/scripts/soft_docking.prm

>  <Rbt.Receptor>
cavity.prm

>  <SCORE>
-34.2899

>  <SCORE.INTER>
-39.3888

>  <SCORE.INTER.CONST>
1

>  <SCORE.INTER.POLAR>
-2.06502

>  <SCORE.INTER.REPUL>
0.0260829

>  <SCORE.INTER.ROT>
9

>  <SCORE.INTER.VDW>
-46.8981

>  <SCORE.INTER.norm>
-1.1936

>  <SCORE.INTRA>
5.67933

>  <SCORE.INTRA.DIHEDRAL>
19.8142

>  <SCORE.INTRA.DIHEDRAL.0>
8.37942

>  <SCORE.INTRA.POLAR>
-0.14405

>  <SCORE.INTRA.POLAR.0>
0

>  <SCORE.INTRA.REPUL>
0

>  <SCORE.INTRA.REPUL.0>
0

>  <SCORE.INTRA.VDW>
2.20626

>  <SCORE.INTRA.VDW.0>
-0.0658046

>  <SCORE.INTRA.norm>
0.172101

>  <SCORE.RESTR>
4.61323

>  <SCORE.RESTR.CAVITY>
0.922645

>  <SCORE.RESTR.norm>
0.139795

>  <SCORE.SYSTEM>
-5.19368

>  <SCORE.SYSTEM.CONST>
0

>  <SCORE.SYSTEM.DIHEDRAL>
4.81911

>  <SCORE.SYSTEM.POLAR>
-1.51345

>  <SCORE.SYSTEM.REPUL>
0.167898

>  <SCORE.SYSTEM.VDW>
-3.29699

>  <SCORE.SYSTEM.norm>
-0.157384

>  <SCORE.heavy>
33

>  <SCORE.norm>
-1.03909

$$$$
FXV.pdb
  rDOCK(R)          3D
libRbt.so/2013.1/901 2013/11/27
 38 40  0  0  0  0  0  0  0  0999 V2000
   -1.4036   25.4317   15.5103 C   0  0  0  0  0  0
   -1.2335   24.8112   16.7923 C   0  0  0  0  0  0
   -1.7047   25.5234   17.9545 C   0  0  0  0  0  0
   -2.3188   26.8111   17.8120 C   0  0  0  0  0  0
   -2.4747   27.3953   16.5792 N   0  0  0  0  0  0
   -2.0241   26.7151   15.4506 C   0  0  0  0  0  0
    0.7778   21.8071   18.2196 C   0  0  0  0  0  0
    0.6186   20.8155   17.1582 C   0  0  0  0  0  0
   -0.1480   21.1850   15.9948 C   0  0  0  0  0  0
   -0.7401   22.4778   15.8731 C   0  0  0  0  0  0
   -0.5959   23.4598   16.9089 C   0  0  0  0  0  0
    0.1697   23.0985   18.0711 C   0  0  0  0  0  0
    1.1758   19.4685   17.2157 C   0  0  0  0  0  0
    2.2488   19.2709   16.4253 N   0  0  0  0  0  0
    2.9702   18.0246   16.3706 C   0  0  0  0  0  0
    4.4463   18.3251   16.7101 C   0  0  0  0  0  0
    2.7460   17.3844   14.9498 C   0  0  0  0  0  0
    2.2439   15.9373   15.1091 C   0  0  0  0  0  0
    1.3021   15.6296   14.1767 O   0  0  0  0  0  0
    4.0327   17.4432   14.0083 C   0  0  0  0  0  0
    3.0519   18.8640   12.0164 C   0  0  0  0  0  0
    3.1506   19.9867   11.0854 C   0  0  0  0  0  0
    4.3128   20.8555   11.1673 C   0  0  0  0  0  0
    5.3353   20.6171   12.1403 C   0  0  0  0  0  0
    5.2280   19.5073   13.0521 C   0  0  0  0  0  0
    4.0936   18.6138   13.0142 C   0  0  0  0  0  0
    2.1108   20.2416   10.0855 C   0  0  0  0  0  0
    1.7509   19.3129    9.1948 N   0  0  0  0  0  0
    1.4988   21.4391   10.0672 N   0  0  0  0  0  0
    2.6258   15.1976   15.9482 O   0  0  0  0  0  0
    0.7116   18.5774   17.9517 O   0  0  0  0  0  0
    0.3792   16.5989   13.6736 C   0  0  0  0  0  0
   -3.0574   28.6194   16.4417 O   0  0  0  0  0  0
    2.5550   20.0143   15.8571 H   0  0  0  0  0  0
    2.1907   18.4321    9.1971 H   0  0  0  0  0  0
    1.7542   22.1325   10.7178 H   0  0  0  0  0  0
    0.7954   21.6224    9.4031 H   0  0  0  0  0  0
   -2.9033   28.9518   15.5436 H   0  0  0  0  0  0
  1  2  1  0  0  0
  1  6  2  0  0  0
  2  3  1  0  0  0
  2 11  1  0  0  0
  3  4  2  0  0  0
  4  5  1  0  0  0
  5  6  1  0  0  0
  5 33  1  0  0  0
  7  8  2  0  0  0
  7 12  1  0  0  0
  8  9  1  0  0  0
  8 13  1  0  0  0
  9 10  2  0  0  0
 10 11  1  0  0  0
 11 12  2  0  0  0
 13 14  1  0  0  0
 13 31  2  0  0  0
 14 15  1  0  0  0
 14 34  1  0  0  0
 15 16  1  0  0  0
 15 17  1  0  0  0
 17 18  1  0  0  0
 17 20  1  0  0  0
 18 19  1  0  0  0
 18 30  2  0  0  0
 19 32  1  0  0  0
 20 26  1  0  0  0
 21 22  2  0  0  0
 21 26  1  0  0  0
 22 23  1  0  0  0
 22 27  1  0  0  0
 23 24  2  0  0  0
 24 25  1  0  0  0
 25 26  2  0  0  0
 27 28  2  0  0  0
 27 29  1  0  0  0
 28 35  1  0  0  0
 29 36  1  0  0  0
 29 37  1  0  0  0
 33 38  1  0  0  0
M  END
>  <CHROM.0>
-86.99909552,105.14968088,83.50452778,119.40550856,-169.04440605,-61.56571275
-63.21250873

>  <CHROM.1>
-31.76723508,167.44260843,-105.91998151,-123.34269789,-127.14969928,141.50590189
-96.32018656,-32.97324660,-57.48248334,-56.52917157,1.22724855,20.85773968
14.93602079,-2.93630567,-1.05659040,2.18752042

>  <FORMUL>
      FXV    C25 H27 N4 O4 1+

>  <HET>
 FXV  A 401      33

>  <HETNAM>
     FXV METHYL-3-(4'-N-OXOPYRIDYLPHENOYL)-3-METHYL-2-(M-AMIDINO
   2 FXV BENZYL)-PROPIONATE

>  <HETSYN>
     FXV FXV673

>  <Name>
FXV.pdb

>  <RI>
0

>  <Rbt.Current_Directory>
/home/malgorzata/Desktop/rDOCK_IFD/Wyniki/8_factor_Xa2/IFD

>  <Rbt.Executable>
rbdock ($Id: //depot/dev/client3/rdock/2013.1/src/exe/rbdock.cxx#4 $)

>  <Rbt.Library>
libRbt.so (2013.1, Build901 2013/11/27)

>  <Rbt.Parameter_File>
/home/malgorzata/Desktop/rDock_2013.1_src/data/scripts/soft_docking.prm

>  <Rbt.Receptor>
cavity.prm

>  <SCORE>
-33.3972

>  <SCORE.INTER>
-42.737

>  <SCORE.INTER.CONST>
1

>  <SCORE.INTER.POLAR>
-1.07681

>  <SCORE.INTER.REPUL>
0.0326202

>  <SCORE.INTER.ROT>
9

>  <SCORE.INTER.VDW>
-53.6389

>  <SCORE.INTER.norm>
-1.29506

>  <SCORE.INTRA>
7.92562

>  <SCORE.INTRA.DIHEDRAL>
33.2771

>  <SCORE.INTRA.DIHEDRAL.0>
8.37942

>  <SCORE.INTRA.POLAR>
0

>  <SCORE.INTRA.POLAR.0>
0

>  <SCORE.INTRA.REPUL>
0

>  <SCORE.INTRA.REPUL.0>
0

>  <SCORE.INTRA.VDW>
1.2702

>  <SCORE.INTRA.VDW.0>
-0.0658046

>  <SCORE.INTRA.norm>
0.24017

>  <SCORE.RESTR>
3.6674

>  <SCORE.RESTR.CAVITY>
0.73348

>  <SCORE.RESTR.norm>
0.111133

>  <SCORE.SYSTEM>
-2.25328

>  <SCORE.SYSTEM.CONST>
0

>  <SCORE.SYSTEM.DIHEDRAL>
10.0984

>  <SCORE.SYSTEM.POLAR>
-1.44556

>  <SCORE.SYSTEM.REPUL>
0.137567

>  <SCORE.SYSTEM.VDW>
-3.07544

>  <SCORE.SYSTEM.norm>
-0.0682811

>  <SCORE.heavy>
33

>  <SCORE.norm>
-1.01204

$$$$
FXV.pdb
  rDOCK(R)          3D
libRbt.so/2013.1/901 2013/11/27
 38 40  0  0  0  0  0  0  0  0999 V2000
    6.6228   21.1899   10.7620 C   0  0  0  0  0  0
    5.5325   20.2652   10.8770 C   0  0  0  0  0  0
    4.8533   19.8689    9.6680 C   0  0  0  0  0  0
    5.2689   20.3958    8.4010 C   0  0  0  0  0  0
    6.3135   21.2817    8.3041 N   0  0  0  0  0  0
    6.9766   21.6697    9.4657 C   0  0  0  0  0  0
    3.4705   19.6154   14.1071 C   0  0  0  0  0  0
    4.3131   18.6463   14.8042 C   0  0  0  0  0  0
    5.5482   18.2474   14.1773 C   0  0  0  0  0  0
    5.9458   18.7756   12.9125 C   0  0  0  0  0  0
    5.1267   19.7243   12.2147 C   0  0  0  0  0  0
    3.8944   20.1284   12.8356 C   0  0  0  0  0  0
    3.9685   18.0467   16.0886 C   0  0  0  0  0  0
    3.1621   18.8002   16.8613 N   0  0  0  0  0  0
    2.6720   18.3696   18.1463 C   0  0  0  0  0  0
    1.8577   17.0763   17.9252 C   0  0  0  0  0  0
    1.8541   19.5529   18.7863 C   0  0  0  0  0  0
    1.8832   19.4298   20.3211 C   0  0  0  0  0  0
    1.1313   20.3961   20.9143 O   0  0  0  0  0  0
    0.3556   19.6623   18.2495 C   0  0  0  0  0  0
   -1.7109   21.2964   18.3345 C   0  0  0  0  0  0
   -2.2631   22.6500   18.3331 C   0  0  0  0  0  0
   -1.3450   23.7734   18.2487 C   0  0  0  0  0  0
    0.0680   23.5573   18.1716 C   0  0  0  0  0  0
    0.6008   22.2192   18.1731 C   0  0  0  0  0  0
   -0.2670   21.0675   18.2560 C   0  0  0  0  0  0
   -3.7070   22.8844   18.4120 C   0  0  0  0  0  0
   -4.2536   23.5621   19.4254 N   0  0  0  0  0  0
   -4.5021   22.4099   17.4364 N   0  0  0  0  0  0
    2.4961   18.6032   20.9027 O   0  0  0  0  0  0
    4.3689   16.9196   16.4360 O   0  0  0  0  0  0
    0.7653   20.3398   22.2953 C   0  0  0  0  0  0
    6.7095   21.7842    7.1010 O   0  0  0  0  0  0
    2.8945   19.6886   16.5320 H   0  0  0  0  0  0
   -3.6832   23.9149   20.1461 H   0  0  0  0  0  0
   -4.1124   21.9088   16.6838 H   0  0  0  0  0  0
   -5.4738   22.5637   17.4749 H   0  0  0  0  0  0
    7.0906   22.6669    7.2290 H   0  0  0  0  0  0
  1  2  1  0  0  0
  1  6  2  0  0  0
  2  3  1  0  0  0
  2 11  1  0  0  0
  3  4  2  0  0  0
  4  5  1  0  0  0
  5  6  1  0  0  0
  5 33  1  0  0  0
  7  8  2  0  0  0
  7 12  1  0  0  0
  8  9  1  0  0  0
  8 13  1  0  0  0
  9 10  2  0  0  0
 10 11  1  0  0  0
 11 12  2  0  0  0
 13 14  1  0  0  0
 13 31  2  0  0  0
 14 15  1  0  0  0
 14 34  1  0  0  0
 15 16  1  0  0  0
 15 17  1  0  0  0
 17 18  1  0  0  0
 17 20  1  0  0  0
 18 19  1  0  0  0
 18 30  2  0  0  0
 19 32  1  0  0  0
 20 26  1  0  0  0
 21 22  2  0  0  0
 21 26  1  0  0  0
 22 23  1  0  0  0
 22 27  1  0  0  0
 23 24  2  0  0  0
 24 25  1  0  0  0
 25 26  2  0  0  0
 27 28  2  0  0  0
 27 29  1  0  0  0
 28 35  1  0  0  0
 29 36  1  0  0  0
 29 37  1  0  0  0
 33 38  1  0  0  0
M  END
>  <CHROM.0>
69.97850637,-133.65610250,95.10436839,44.86246606,165.56851932,-61.56571275
0.84176488

>  <CHROM.1>
-71.53469419,150.89512843,-26.80410157,-59.87179814,-153.54238093,-176.93598946
-151.46445408,166.58188557,-154.34118071,118.80421873,2.33982133,20.35873386
15.71866833,0.74989802,0.62997753,-1.10453122

>  <FORMUL>
      FXV    C25 H27 N4 O4 1+

>  <HET>
 FXV  A 401      33

>  <HETNAM>
     FXV METHYL-3-(4'-N-OXOPYRIDYLPHENOYL)-3-METHYL-2-(M-AMIDINO
   2 FXV BENZYL)-PROPIONATE

>  <HETSYN>
     FXV FXV673

>  <Name>
FXV.pdb

>  <RI>
0

>  <Rbt.Current_Directory>
/home/malgorzata/Desktop/rDOCK_IFD/Wyniki/8_factor_Xa2/IFD

>  <Rbt.Executable>
rbdock ($Id: //depot/dev/client3/rdock/2013.1/src/exe/rbdock.cxx#4 $)

>  <Rbt.Library>
libRbt.so (2013.1, Build901 2013/11/27)

>  <Rbt.Parameter_File>
/home/malgorzata/Desktop/rDock_2013.1_src/data/scripts/soft_docking.prm

>  <Rbt.Receptor>
cavity.prm

>  <SCORE>
-32.1115

>  <SCORE.INTER>
-30.605

>  <SCORE.INTER.CONST>
1

>  <SCORE.INTER.POLAR>
-1.20104

>  <SCORE.INTER.REPUL>
0.268922

>  <SCORE.INTER.ROT>
9

>  <SCORE.INTER.VDW>
-42.266

>  <SCORE.INTER.norm>
-0.927424

>  <SCORE.INTRA>
3.22707

>  <SCORE.INTRA.DIHEDRAL>
14.3075

>  <SCORE.INTRA.DIHEDRAL.0>
8.37942

>  <SCORE.INTRA.POLAR>
0

>  <SCORE.INTRA.POLAR.0>
0

>  <SCORE.INTRA.REPUL>
0

>  <SCORE.INTRA.REPUL.0>
0

>  <SCORE.INTRA.VDW>
0.365567

>  <SCORE.INTRA.VDW.0>
-0.0658046

>  <SCORE.INTRA.norm>
0.0977899

>  <SCORE.RESTR>
0.830113

>  <SCORE.RESTR.CAVITY>
0.166023

>  <SCORE.RESTR.norm>
0.0251549

>  <SCORE.SYSTEM>
-5.5637

>  <SCORE.SYSTEM.CONST>
0

>  <SCORE.SYSTEM.DIHEDRAL>
4.74407

>  <SCORE.SYSTEM.POLAR>
-1.9753

>  <SCORE.SYSTEM.REPUL>
0.348555

>  <SCORE.SYSTEM.VDW>
-2.96248

>  <SCORE.SYSTEM.norm>
-0.168597

>  <SCORE.heavy>
33

>  <SCORE.norm>
-0.973076

$$$$
FXV.pdb
  rDOCK(R)          3D
libRbt.so/2013.1/901 2013/11/27
 38 40  0  0  0  0  0  0  0  0999 V2000
   -2.6030   14.7746   12.8309 C   0  0  0  0  0  0
   -2.4090   15.4694   14.0706 C   0  0  0  0  0  0
   -3.3802   15.2660   15.1173 C   0  0  0  0  0  0
   -4.4986   14.3946   14.9046 C   0  0  0  0  0  0
   -4.6740   13.7360   13.7125 N   0  0  0  0  0  0
   -3.7411   13.9248   12.6960 C   0  0  0  0  0  0
    0.4875   17.4099   15.7888 C   0  0  0  0  0  0
    1.1047   18.0862   14.6501 C   0  0  0  0  0  0
    0.5282   17.8799   13.3453 C   0  0  0  0  0  0
   -0.6110   17.0407   13.1589 C   0  0  0  0  0  0
   -1.2248   16.3671   14.2667 C   0  0  0  0  0  0
   -0.6561   16.5704   15.5716 C   0  0  0  0  0  0
    2.2803   18.9436   14.7551 C   0  0  0  0  0  0
    3.0980   18.6512   15.7852 N   0  0  0  0  0  0
    4.3323   19.3511   16.0366 C   0  0  0  0  0  0
    5.4169   18.7221   15.1353 C   0  0  0  0  0  0
    4.6408   19.2728   17.5786 C   0  0  0  0  0  0
    4.2467   17.8837   18.1139 C   0  0  0  0  0  0
    4.7253   17.6783   19.3708 O   0  0  0  0  0  0
    3.9511   20.4314   18.4315 C   0  0  0  0  0  0
    1.5961   21.1499   17.4904 C   0  0  0  0  0  0
    0.1361   21.1235   17.5611 C   0  0  0  0  0  0
   -0.4930   20.3624   18.6274 C   0  0  0  0  0  0
    0.3009   19.6529   19.5843 C   0  0  0  0  0  0
    1.7386   19.6865   19.5054 C   0  0  0  0  0  0
    2.4146   20.4267   18.4654 C   0  0  0  0  0  0
   -0.6873   21.8450   16.5878 C   0  0  0  0  0  0
   -0.2103   22.2001   15.3912 N   0  0  0  0  0  0
   -1.9577   22.1530   16.9046 N   0  0  0  0  0  0
    3.6175   17.0957   17.4972 O   0  0  0  0  0  0
    2.5219   19.8592   13.9460 O   0  0  0  0  0  0
    4.5051   16.4581   20.0828 C   0  0  0  0  0  0
   -5.7367   12.9079   13.5082 O   0  0  0  0  0  0
    2.8396   17.9236   16.3961 H   0  0  0  0  0  0
    0.7177   21.9808   15.1465 H   0  0  0  0  0  0
   -2.3218   21.8973   17.7828 H   0  0  0  0  0  0
   -2.5234   22.6341   16.2582 H   0  0  0  0  0  0
   -5.4183   12.0036   13.3607 H   0  0  0  0  0  0
  1  2  1  0  0  0
  1  6  2  0  0  0
  2  3  1  0  0  0
  2 11  1  0  0  0
  3  4  2  0  0  0
  4  5  1  0  0  0
  5  6  1  0  0  0
  5 33  1  0  0  0
  7  8  2  0  0  0
  7 12  1  0  0  0
  8  9  1  0  0  0
  8 13  1  0  0  0
  9 10  2  0  0  0
 10 11  1  0  0  0
 11 12  2  0  0  0
 13 14  1  0  0  0
 13 31  2  0  0  0
 14 15  1  0  0  0
 14 34  1  0  0  0
 15 16  1  0  0  0
 15 17  1  0  0  0
 17 18  1  0  0  0
 17 20  1  0  0  0
 18 19  1  0  0  0
 18 30  2  0  0  0
 19 32  1  0  0  0
 20 26  1  0  0  0
 21 22  2  0  0  0
 21 26  1  0  0  0
 22 23  1  0  0  0
 22 27  1  0  0  0
 23 24  2  0  0  0
 24 25  1  0  0  0
 25 26  2  0  0  0
 27 28  2  0  0  0
 27 29  1  0  0  0
 28 35  1  0  0  0
 29 36  1  0  0  0
 29 37  1  0  0  0
 33 38  1  0  0  0
M  END
>  <CHROM.0>
-136.40691075,22.45689303,-65.76005197,-17.43032960,-161.59420444,-61.56571275
-168.27459256

>  <CHROM.1>
28.50035343,-116.85141511,27.23878582,-83.01816433,38.27258315,168.29739373
64.61820863,-179.36765851,-90.35415285,21.11277518,0.59016944,18.05809199
16.08120027,-2.46477397,-0.31304594,0.32997005

>  <FORMUL>
      FXV    C25 H27 N4 O4 1+

>  <HET>
 FXV  A 401      33

>  <HETNAM>
     FXV METHYL-3-(4'-N-OXOPYRIDYLPHENOYL)-3-METHYL-2-(M-AMIDINO
   2 FXV BENZYL)-PROPIONATE

>  <HETSYN>
     FXV FXV673

>  <Name>
FXV.pdb

>  <RI>
0

>  <Rbt.Current_Directory>
/home/malgorzata/Desktop/rDOCK_IFD/Wyniki/8_factor_Xa2/IFD

>  <Rbt.Executable>
rbdock ($Id: //depot/dev/client3/rdock/2013.1/src/exe/rbdock.cxx#4 $)

>  <Rbt.Library>
libRbt.so (2013.1, Build901 2013/11/27)

>  <Rbt.Parameter_File>
/home/malgorzata/Desktop/rDock_2013.1_src/data/scripts/soft_docking.prm

>  <Rbt.Receptor>
cavity.prm

>  <SCORE>
-28.9666

>  <SCORE.INTER>
-25.8065

>  <SCORE.INTER.CONST>
1

>  <SCORE.INTER.POLAR>
-1.43072

>  <SCORE.INTER.REPUL>
0

>  <SCORE.INTER.ROT>
9

>  <SCORE.INTER.VDW>
-35.342

>  <SCORE.INTER.norm>
-0.782015

>  <SCORE.INTRA>
-0.854342

>  <SCORE.INTRA.DIHEDRAL>
4.1382

>  <SCORE.INTRA.DIHEDRAL.0>
8.37942

>  <SCORE.INTRA.POLAR>
-0.0770769

>  <SCORE.INTRA.POLAR.0>
0

>  <SCORE.INTRA.REPUL>
0

>  <SCORE.INTRA.REPUL.0>
0

>  <SCORE.INTRA.VDW>
-1.41992

>  <SCORE.INTRA.VDW.0>
-0.0658046

>  <SCORE.INTRA.norm>
-0.0258891

>  <SCORE.RESTR>
3.26134

>  <SCORE.RESTR.CAVITY>
0.652268

>  <SCORE.RESTR.norm>
0.0988285

>  <SCORE.SYSTEM>
-5.56711

>  <SCORE.SYSTEM.CONST>
0

>  <SCORE.SYSTEM.DIHEDRAL>
3.69099

>  <SCORE.SYSTEM.POLAR>
-1.439

>  <SCORE.SYSTEM.REPUL>
0.137567

>  <SCORE.SYSTEM.VDW>
-3.20783

>  <SCORE.SYSTEM.norm>
-0.1687

>  <SCORE.heavy>
33

>  <SCORE.norm>
-0.877776

$$$$
FXV.pdb
  rDOCK(R)          3D
libRbt.so/2013.1/901 2013/11/27
 38 40  0  0  0  0  0  0  0  0999 V2000
    3.2685   19.9951    7.6443 C   0  0  0  0  0  0
    2.5054   19.7387    8.8314 C   0  0  0  0  0  0
    1.0704   19.6627    8.7079 C   0  0  0  0  0  0
    0.4456   19.8429    7.4302 C   0  0  0  0  0  0
    1.1872   20.0891    6.3010 N   0  0  0  0  0  0
    2.5736   20.1633    6.4096 C   0  0  0  0  0  0
    3.3453   18.3617   12.3678 C   0  0  0  0  0  0
    4.5338   19.1389   12.7116 C   0  0  0  0  0  0
    5.0120   20.1052   11.7549 C   0  0  0  0  0  0
    4.3528   20.3043   10.5048 C   0  0  0  0  0  0
    3.1876   19.5456   10.1520 C   0  0  0  0  0  0
    2.7039   18.5816   11.1028 C   0  0  0  0  0  0
    5.2740   18.9813   13.9587 C   0  0  0  0  0  0
    4.7170   18.1254   14.8375 N   0  0  0  0  0  0
    5.3138   17.7986   16.1078 C   0  0  0  0  0  0
    5.6479   16.2911   16.0919 C   0  0  0  0  0  0
    4.3196   18.2333   17.2486 C   0  0  0  0  0  0
    3.2203   17.1669   17.4094 C   0  0  0  0  0  0
    2.7141   16.7855   16.2055 O   0  0  0  0  0  0
    3.6850   19.6808   17.0306 C   0  0  0  0  0  0
    1.3879   20.9589   17.2252 C   0  0  0  0  0  0
    0.0999   21.1669   17.8848 C   0  0  0  0  0  0
   -0.2402   20.3287   19.0223 C   0  0  0  0  0  0
    0.6658   19.3208   19.4831 C   0  0  0  0  0  0
    1.9325   19.1251   18.8260 C   0  0  0  0  0  0
    2.3196   19.9300   17.6908 C   0  0  0  0  0  0
   -0.8361   22.1946   17.4225 C   0  0  0  0  0  0
   -0.9977   23.3449   18.0829 N   0  0  0  0  0  0
   -1.5469   21.9771   16.3016 N   0  0  0  0  0  0
    2.8588   16.7477   18.4538 O   0  0  0  0  0  0
    6.3462   19.5729   14.1862 O   0  0  0  0  0  0
    1.4138   16.2061   16.0718 C   0  0  0  0  0  0
    0.5951   20.2614    5.0859 O   0  0  0  0  0  0
    3.8601   17.7025   14.6002 H   0  0  0  0  0  0
   -0.4837   23.5170   18.9048 H   0  0  0  0  0  0
   -1.4376   21.1339   15.8053 H   0  0  0  0  0  0
   -2.1765   22.6611   15.9774 H   0  0  0  0  0  0
    0.2568   19.4099    4.7674 H   0  0  0  0  0  0
  1  2  1  0  0  0
  1  6  2  0  0  0
  2  3  1  0  0  0
  2 11  1  0  0  0
  3  4  2  0  0  0
  4  5  1  0  0  0
  5  6  1  0  0  0
  5 33  1  0  0  0
  7  8  2  0  0  0
  7 12  1  0  0  0
  8  9  1  0  0  0
  8 13  1  0  0  0
  9 10  2  0  0  0
 10 11  1  0  0  0
 11 12  2  0  0  0
 13 14  1  0  0  0
 13 31  2  0  0  0
 14 15  1  0  0  0
 14 34  1  0  0  0
 15 16  1  0  0  0
 15 17  1  0  0  0
 17 18  1  0  0  0
 17 20  1  0  0  0
 18 19  1  0  0  0
 18 30  2  0  0  0
 19 32  1  0  0  0
 20 26  1  0  0  0
 21 22  2  0  0  0
 21 26  1  0  0  0
 22 23  1  0  0  0
 22 27  1  0  0  0
 23 24  2  0  0  0
 24 25  1  0  0  0
 25 26  2  0  0  0
 27 28  2  0  0  0
 27 29  1  0  0  0
 28 35  1  0  0  0
 29 36  1  0  0  0
 29 37  1  0  0  0
 33 38  1  0  0  0
M  END
>  <CHROM.0>
-134.81528790,70.33811616,-63.38169617,-32.29208331,159.56181105,-61.56571275
178.60081354

>  <CHROM.1>
37.00728636,-71.93064560,-5.00963346,-116.71803995,80.21491623,-46.17511828
154.16135589,-157.02406820,-157.15523896,-104.23958176,2.50202381,19.35498128
13.88983445,-1.53234851,-0.60186881,1.64784279

>  <FORMUL>
      FXV    C25 H27 N4 O4 1+

>  <HET>
 FXV  A 401      33

>  <HETNAM>
     FXV METHYL-3-(4'-N-OXOPYRIDYLPHENOYL)-3-METHYL-2-(M-AMIDINO
   2 FXV BENZYL)-PROPIONATE

>  <HETSYN>
     FXV FXV673

>  <Name>
FXV.pdb

>  <RI>
0

>  <Rbt.Current_Directory>
/home/malgorzata/Desktop/rDOCK_IFD/Wyniki/8_factor_Xa2/IFD

>  <Rbt.Executable>
rbdock ($Id: //depot/dev/client3/rdock/2013.1/src/exe/rbdock.cxx#4 $)

>  <Rbt.Library>
libRbt.so (2013.1, Build901 2013/11/27)

>  <Rbt.Parameter_File>
/home/malgorzata/Desktop/rDock_2013.1_src/data/scripts/soft_docking.prm

>  <Rbt.Receptor>
cavity.prm

>  <SCORE>
-31.6532

>  <SCORE.INTER>
-33.2544

>  <SCORE.INTER.CONST>
1

>  <SCORE.INTER.POLAR>
-0.472907

>  <SCORE.INTER.REPUL>
0.167419

>  <SCORE.INTER.ROT>
9

>  <SCORE.INTER.VDW>
-46.8836

>  <SCORE.INTER.norm>
-1.00771

>  <SCORE.INTRA>
3.52789

>  <SCORE.INTRA.DIHEDRAL>
18.0566

>  <SCORE.INTRA.DIHEDRAL.0>
8.37942

>  <SCORE.INTRA.POLAR>
-0.324881

>  <SCORE.INTRA.POLAR.0>
0

>  <SCORE.INTRA.REPUL>
0

>  <SCORE.INTRA.REPUL.0>
0

>  <SCORE.INTRA.VDW>
1.02117

>  <SCORE.INTRA.VDW.0>
-0.0658046

>  <SCORE.INTRA.norm>
0.106906

>  <SCORE.RESTR>
3.44958

>  <SCORE.RESTR.CAVITY>
0.689916

>  <SCORE.RESTR.norm>
0.104533

>  <SCORE.SYSTEM>
-5.37623

>  <SCORE.SYSTEM.CONST>
0

>  <SCORE.SYSTEM.DIHEDRAL>
7.37314

>  <SCORE.SYSTEM.POLAR>
-1.82348

>  <SCORE.SYSTEM.REPUL>
0.141215

>  <SCORE.SYSTEM.VDW>
-3.56904

>  <SCORE.SYSTEM.norm>
-0.162916

>  <SCORE.heavy>
33

>  <SCORE.norm>
-0.959187

$$$$
FXV.pdb
  rDOCK(R)          3D
libRbt.so/2013.1/901 2013/11/27
 38 40  0  0  0  0  0  0  0  0999 V2000
   -1.9016   26.3657   17.5683 C   0  0  0  0  0  0
   -2.4833   25.2214   18.2081 C   0  0  0  0  0  0
   -3.6796   25.4203   18.9889 C   0  0  0  0  0  0
   -4.2522   26.7289   19.1112 C   0  0  0  0  0  0
   -3.6850   27.8170   18.4949 N   0  0  0  0  0  0
   -2.5304   27.6353   17.7377 C   0  0  0  0  0  0
   -1.9035   21.3910   18.5237 C   0  0  0  0  0  0
   -0.6909   21.2105   17.7286 C   0  0  0  0  0  0
   -0.0999   22.3757   17.1197 C   0  0  0  0  0  0
   -0.6744   23.6721   17.2804 C   0  0  0  0  0  0
   -1.8669   23.8639   18.0544 C   0  0  0  0  0  0
   -2.4603   22.7061   18.6666 C   0  0  0  0  0  0
   -0.0542   19.9178   17.5015 C   0  0  0  0  0  0
   -0.5701   18.9037   18.2229 N   0  0  0  0  0  0
   -0.1110   17.5423   18.1118 C   0  0  0  0  0  0
   -1.0108   16.8296   17.0788 C   0  0  0  0  0  0
   -0.1282   16.8951   19.5470 C   0  0  0  0  0  0
   -1.2224   17.5621   20.4010 C   0  0  0  0  0  0
   -0.7004   18.1515   21.5106 O   0  0  0  0  0  0
    1.2835   16.9400   20.2890 C   0  0  0  0  0  0
    2.6008   19.0725   19.4733 C   0  0  0  0  0  0
    3.7040   19.6790   18.7302 C   0  0  0  0  0  0
    4.6350   18.8059   18.0353 C   0  0  0  0  0  0
    4.4752   17.3841   18.0809 C   0  0  0  0  0  0
    3.3841   16.7974   18.8157 C   0  0  0  0  0  0
    2.4309   17.6192   19.5246 C   0  0  0  0  0  0
    3.8786   21.1325   18.6761 C   0  0  0  0  0  0
    5.0885   21.6966   18.7325 N   0  0  0  0  0  0
    2.7935   21.9190   18.5613 N   0  0  0  0  0  0
   -2.3717   17.5474   20.1253 O   0  0  0  0  0  0
    0.8775   19.7579   16.6904 O   0  0  0  0  0  0
   -1.3516   18.0987   22.7823 C   0  0  0  0  0  0
   -4.2273   29.0617   18.6106 O   0  0  0  0  0  0
   -1.2965   19.1024   18.8571 H   0  0  0  0  0  0
    5.8911   21.1326   18.8165 H   0  0  0  0  0  0
    1.8961   21.5164   18.5188 H   0  0  0  0  0  0
    2.8968   22.8972   18.5199 H   0  0  0  0  0  0
   -5.0708   29.0925   18.1327 H   0  0  0  0  0  0
  1  2  1  0  0  0
  1  6  2  0  0  0
  2  3  1  0  0  0
  2 11  1  0  0  0
  3  4  2  0  0  0
  4  5  1  0  0  0
  5  6  1  0  0  0
  5 33  1  0  0  0
  7  8  2  0  0  0
  7 12  1  0  0  0
  8  9  1  0  0  0
  8 13  1  0  0  0
  9 10  2  0  0  0
 10 11  1  0  0  0
 11 12  2  0  0  0
 13 14  1  0  0  0
 13 31  2  0  0  0
 14 15  1  0  0  0
 14 34  1  0  0  0
 15 16  1  0  0  0
 15 17  1  0  0  0
 17 18  1  0  0  0
 17 20  1  0  0  0
 18 19  1  0  0  0
 18 30  2  0  0  0
 19 32  1  0  0  0
 20 26  1  0  0  0
 21 22  2  0  0  0
 21 26  1  0  0  0
 22 23  1  0  0  0
 22 27  1  0  0  0
 23 24  2  0  0  0
 24 25  1  0  0  0
 25 26  2  0  0  0
 27 28  2  0  0  0
 27 29  1  0  0  0
 28 35  1  0  0  0
 29 36  1  0  0  0
 29 37  1  0  0  0
 33 38  1  0  0  0
M  END
>  <CHROM.0>
-4.32842786,171.85222378,-140.80151951,-39.66913949,149.67920566,-61.56571275
-60.97437288

>  <CHROM.1>
0.75046353,-69.12578380,-8.07440862,-93.37466793,28.78464926,-119.99210531
1.12037578,-140.27203944,80.41700290,140.87820253,-0.12858618,21.08865437
18.72288990,-2.10030994,-0.24508170,2.90700044

>  <FORMUL>
      FXV    C25 H27 N4 O4 1+

>  <HET>
 FXV  A 401      33

>  <HETNAM>
     FXV METHYL-3-(4'-N-OXOPYRIDYLPHENOYL)-3-METHYL-2-(M-AMIDINO
   2 FXV BENZYL)-PROPIONATE

>  <HETSYN>
     FXV FXV673

>  <Name>
FXV.pdb

>  <RI>
0

>  <Rbt.Current_Directory>
/home/malgorzata/Desktop/rDOCK_IFD/Wyniki/8_factor_Xa2/IFD

>  <Rbt.Executable>
rbdock ($Id: //depot/dev/client3/rdock/2013.1/src/exe/rbdock.cxx#4 $)

>  <Rbt.Library>
libRbt.so (2013.1, Build901 2013/11/27)

>  <Rbt.Parameter_File>
/home/malgorzata/Desktop/rDock_2013.1_src/data/scripts/soft_docking.prm

>  <Rbt.Receptor>
cavity.prm

>  <SCORE>
-27.6539

>  <SCORE.INTER>
-27.9516

>  <SCORE.INTER.CONST>
1

>  <SCORE.INTER.POLAR>
-0.302446

>  <SCORE.INTER.REPUL>
0

>  <SCORE.INTER.ROT>
9

>  <SCORE.INTER.VDW>
-41.3233

>  <SCORE.INTER.norm>
-0.847019

>  <SCORE.INTRA>
3.89524

>  <SCORE.INTRA.DIHEDRAL>
24.3284

>  <SCORE.INTRA.DIHEDRAL.0>
8.37942

>  <SCORE.INTRA.POLAR>
0

>  <SCORE.INTRA.POLAR.0>
0

>  <SCORE.INTRA.REPUL>
0

>  <SCORE.INTRA.REPUL.0>
0

>  <SCORE.INTRA.VDW>
-0.970434

>  <SCORE.INTRA.VDW.0>
-0.0658046

>  <SCORE.INTRA.norm>
0.118038

>  <SCORE.RESTR>
0.352108

>  <SCORE.RESTR.CAVITY>
0.0704217

>  <SCORE.RESTR.norm>
0.0106699

>  <SCORE.SYSTEM>
-3.94966

>  <SCORE.SYSTEM.CONST>
0

>  <SCORE.SYSTEM.DIHEDRAL>
8.65382

>  <SCORE.SYSTEM.POLAR>
-1.74976

>  <SCORE.SYSTEM.REPUL>
0.137567

>  <SCORE.SYSTEM.VDW>
-3.01523

>  <SCORE.SYSTEM.norm>
-0.119687

>  <SCORE.heavy>
33

>  <SCORE.norm>
-0.837998

$$$$
