FXV.pdb
  rDOCK(R)          3D
libRbt.so/2013.1/901 2013/11/27
 38 40  0  0  0  0  0  0  0  0999 V2000
    5.2335   19.1121   13.2288 C   0  0  0  0  0  0
    3.9134   18.6476   12.9144 C   0  0  0  0  0  0
    3.4308   18.8452   11.5697 C   0  0  0  0  0  0
    4.2593   19.4899   10.5932 C   0  0  0  0  0  0
    5.5211   19.9314   10.9069 N   0  0  0  0  0  0
    5.9967   19.7443   12.2023 C   0  0  0  0  0  0
    0.8214   17.1928   14.7667 C   0  0  0  0  0  0
    1.4375   16.6157   15.9593 C   0  0  0  0  0  0
    2.8655   16.7388   16.1117 C   0  0  0  0  0  0
    3.6644   17.4014   15.1321 C   0  0  0  0  0  0
    3.0739   17.9689   13.9543 C   0  0  0  0  0  0
    1.6495   17.8517   13.7972 C   0  0  0  0  0  0
    0.6936   15.9076   16.9953 C   0  0  0  0  0  0
   -0.6442   15.9251   16.8369 N   0  0  0  0  0  0
   -1.5535   15.2482   17.7267 C   0  0  0  0  0  0
   -2.2648   14.1439   16.9149 C   0  0  0  0  0  0
   -2.5206   16.3198   18.3555 C   0  0  0  0  0  0
   -3.3620   15.6663   19.4675 C   0  0  0  0  0  0
   -4.2369   14.7552   18.9621 O   0  0  0  0  0  0
   -3.4532   17.0495   17.2863 C   0  0  0  0  0  0
   -3.1194   19.6447   16.9677 C   0  0  0  0  0  0
   -3.4896   21.0231   17.2841 C   0  0  0  0  0  0
   -4.5656   21.2517   18.2338 C   0  0  0  0  0  0
   -5.2483   20.1504   18.8425 C   0  0  0  0  0  0
   -4.8746   18.7964   18.5238 C   0  0  0  0  0  0
   -3.8130   18.5134   17.5861 C   0  0  0  0  0  0
   -2.7991   22.1585   16.6676 C   0  0  0  0  0  0
   -1.7284   21.9887   15.8865 N   0  0  0  0  0  0
   -3.2579   23.4033   16.8891 N   0  0  0  0  0  0
   -3.2621   15.9384   20.6134 O   0  0  0  0  0  0
    1.2495   15.3154   17.9396 O   0  0  0  0  0  0
   -5.0975   13.9766   19.7973 C   0  0  0  0  0  0
    6.3097   20.5450    9.9804 O   0  0  0  0  0  0
   -1.0190   16.4248   16.0759 H   0  0  0  0  0  0
   -1.3821   21.0831   15.7160 H   0  0  0  0  0  0
   -4.0459   23.5426   17.4627 H   0  0  0  0  0  0
   -2.8058   24.1751   16.4778 H   0  0  0  0  0  0
    5.8849   20.4945    9.1098 H   0  0  0  0  0  0
  1  2  1  0  0  0
  1  6  2  0  0  0
  2  3  1  0  0  0
  2 11  1  0  0  0
  3  4  2  0  0  0
  4  5  1  0  0  0
  5  6  1  0  0  0
  5 33  1  0  0  0
  7  8  2  0  0  0
  7 12  1  0  0  0
  8  9  1  0  0  0
  8 13  1  0  0  0
  9 10  2  0  0  0
 10 11  1  0  0  0
 11 12  2  0  0  0
 13 14  1  0  0  0
 13 31  2  0  0  0
 14 15  1  0  0  0
 14 34  1  0  0  0
 15 16  1  0  0  0
 15 17  1  0  0  0
 17 18  1  0  0  0
 17 20  1  0  0  0
 18 19  1  0  0  0
 18 30  2  0  0  0
 19 32  1  0  0  0
 20 26  1  0  0  0
 21 22  2  0  0  0
 21 26  1  0  0  0
 22 23  1  0  0  0
 22 27  1  0  0  0
 23 24  2  0  0  0
 24 25  1  0  0  0
 25 26  2  0  0  0
 27 28  2  0  0  0
 27 29  1  0  0  0
 28 35  1  0  0  0
 29 36  1  0  0  0
 29 37  1  0  0  0
 33 38  1  0  0  0
M  END
>  <CHROM.0>
85.26444112,18.10932943,88.40816887,67.02063147,121.60056092,73.54313741
-64.56119974,-173.51569961,174.31457666

>  <CHROM.1>
-19.13686107,-7.35840060,-5.80693381,-115.59403305,-171.49529557,-67.71863859
-147.42597841,177.68343262,99.15325412,-6.10200322,-0.29589912,18.07243310
16.04069313,-0.38198627,-0.57212280,2.78830904

>  <FORMUL>
      FXV    C25 H27 N4 O4 1+

>  <HET>
 FXV  A 401      33

>  <HETNAM>
     FXV METHYL-3-(4'-N-OXOPYRIDYLPHENOYL)-3-METHYL-2-(M-AMIDINO
   2 FXV BENZYL)-PROPIONATE

>  <HETSYN>
     FXV FXV673

>  <Name>
FXV.pdb

>  <RI>
0

>  <Rbt.Current_Directory>
/home/malgorzata/Desktop/rDOCK_IFD/Wyniki/8_factor_Xa2/IFD

>  <Rbt.Executable>
rbdock ($Id: //depot/dev/client3/rdock/2013.1/src/exe/rbdock.cxx#4 $)

>  <Rbt.Library>
libRbt.so (2013.1, Build901 2013/11/27)

>  <Rbt.Parameter_File>
/home/malgorzata/Desktop/rDock_2013.1_src/data/scripts/dock.prm

>  <Rbt.Receptor>
cavity.prm

>  <SCORE>
-34.7563

>  <SCORE.INTER>
-18.014

>  <SCORE.INTER.CONST>
1

>  <SCORE.INTER.POLAR>
-1.26842

>  <SCORE.INTER.REPUL>
0

>  <SCORE.INTER.ROT>
9

>  <SCORE.INTER.VDW>
-28.1014

>  <SCORE.INTER.norm>
-0.545879

>  <SCORE.INTRA>
-0.175645

>  <SCORE.INTRA.DIHEDRAL>
-1.3918

>  <SCORE.INTRA.DIHEDRAL.0>
8.37942

>  <SCORE.INTRA.POLAR>
0

>  <SCORE.INTRA.POLAR.0>
0

>  <SCORE.INTRA.REPUL>
0

>  <SCORE.INTRA.REPUL.0>
0

>  <SCORE.INTRA.VDW>
0.520256

>  <SCORE.INTRA.VDW.0>
-0.0658046

>  <SCORE.INTRA.norm>
-0.00532258

>  <SCORE.RESTR>
0

>  <SCORE.RESTR.CAVITY>
0

>  <SCORE.RESTR.norm>
0

>  <SCORE.SYSTEM>
-16.5667

>  <SCORE.SYSTEM.CONST>
0

>  <SCORE.SYSTEM.DIHEDRAL>
3.09283

>  <SCORE.SYSTEM.POLAR>
-4.89711

>  <SCORE.SYSTEM.REPUL>
0.260112

>  <SCORE.SYSTEM.VDW>
-2.76349

>  <SCORE.SYSTEM.norm>
-0.50202

>  <SCORE.heavy>
33

>  <SCORE.norm>
-1.05322

$$$$
FXV.pdb
  rDOCK(R)          3D
libRbt.so/2013.1/901 2013/11/27
 38 40  0  0  0  0  0  0  0  0999 V2000
    3.2889   18.7335   12.1118 C   0  0  0  0  0  0
    3.9566   18.3413   13.3190 C   0  0  0  0  0  0
    5.3562   18.6636   13.4514 C   0  0  0  0  0  0
    6.0408   19.3527   12.3970 C   0  0  0  0  0  0
    5.3907   19.7218   11.2453 N   0  0  0  0  0  0
    4.0390   19.4162   11.1082 C   0  0  0  0  0  0
    2.9893   16.9869   16.8315 C   0  0  0  0  0  0
    1.7463   16.2759   16.5407 C   0  0  0  0  0  0
    1.2753   16.2635   15.1784 C   0  0  0  0  0  0
    1.9928   16.9242   14.1366 C   0  0  0  0  0  0
    3.2120   17.6297   14.4080 C   0  0  0  0  0  0
    3.6887   17.6440   15.7644 C   0  0  0  0  0  0
    0.9462   15.5930   17.5514 C   0  0  0  0  0  0
   -0.3350   15.3725   17.1982 N   0  0  0  0  0  0
   -1.2764   14.6748   18.0371 C   0  0  0  0  0  0
   -1.7272   13.4077   17.2784 C   0  0  0  0  0  0
   -2.4442   15.6659   18.4015 C   0  0  0  0  0  0
   -3.4940   14.9340   19.2581 C   0  0  0  0  0  0
   -3.0024   14.6141   20.4857 O   0  0  0  0  0  0
   -3.1215   16.3553   17.1320 C   0  0  0  0  0  0
   -3.6195   18.8570   17.7962 C   0  0  0  0  0  0
   -4.5673   19.9359   18.0700 C   0  0  0  0  0  0
   -5.9890   19.6527   17.9670 C   0  0  0  0  0  0
   -6.4488   18.3469   17.6029 C   0  0  0  0  0  0
   -5.5059   17.2913   17.3361 C   0  0  0  0  0  0
   -4.0823   17.5190   17.4232 C   0  0  0  0  0  0
   -4.1094   21.2764   18.4430 C   0  0  0  0  0  0
   -2.8107   21.5876   18.4865 N   0  0  0  0  0  0
   -5.0198   22.2196   18.7441 N   0  0  0  0  0  0
   -4.5845   14.6752   18.8824 O   0  0  0  0  0  0
    1.4136   15.2235   18.6453 O   0  0  0  0  0  0
   -3.7622   13.8740   21.4444 C   0  0  0  0  0  0
    6.0399   20.3762   10.2416 O   0  0  0  0  0  0
   -0.6433   15.7041   16.3239 H   0  0  0  0  0  0
   -2.1339   20.9068   18.2684 H   0  0  0  0  0  0
   -5.9799   22.0038   18.7161 H   0  0  0  0  0  0
   -4.7260   23.1259   18.9926 H   0  0  0  0  0  0
    5.5738   20.2272    9.4041 H   0  0  0  0  0  0
  1  2  1  0  0  0
  1  6  2  0  0  0
  2  3  1  0  0  0
  2 11  1  0  0  0
  3  4  2  0  0  0
  4  5  1  0  0  0
  5  6  1  0  0  0
  5 33  1  0  0  0
  7  8  2  0  0  0
  7 12  1  0  0  0
  8  9  1  0  0  0
  8 13  1  0  0  0
  9 10  2  0  0  0
 10 11  1  0  0  0
 11 12  2  0  0  0
 13 14  1  0  0  0
 13 31  2  0  0  0
 14 15  1  0  0  0
 14 34  1  0  0  0
 15 16  1  0  0  0
 15 17  1  0  0  0
 17 18  1  0  0  0
 17 20  1  0  0  0
 18 19  1  0  0  0
 18 30  2  0  0  0
 19 32  1  0  0  0
 20 26  1  0  0  0
 21 22  2  0  0  0
 21 26  1  0  0  0
 22 23  1  0  0  0
 22 27  1  0  0  0
 23 24  2  0  0  0
 24 25  1  0  0  0
 25 26  2  0  0  0
 27 28  2  0  0  0
 27 29  1  0  0  0
 28 35  1  0  0  0
 29 36  1  0  0  0
 29 37  1  0  0  0
 33 38  1  0  0  0
M  END
>  <CHROM.0>
109.04456894,-153.12646434,-77.84840368,-155.81717081,118.43218664,74.19166138
63.93851942,12.97902485,173.53031598

>  <CHROM.1>
21.43452244,156.29682324,159.83031026,-118.08076369,178.00696485,67.85173705
-169.06433374,-176.97843694,76.04416065,3.26409562,-0.45477969,17.47666590
16.47977826,0.39624941,0.50286738,-0.44886284

>  <FORMUL>
      FXV    C25 H27 N4 O4 1+

>  <HET>
 FXV  A 401      33

>  <HETNAM>
     FXV METHYL-3-(4'-N-OXOPYRIDYLPHENOYL)-3-METHYL-2-(M-AMIDINO
   2 FXV BENZYL)-PROPIONATE

>  <HETSYN>
     FXV FXV673

>  <Name>
FXV.pdb

>  <RI>
0

>  <Rbt.Current_Directory>
/home/malgorzata/Desktop/rDOCK_IFD/Wyniki/8_factor_Xa2/IFD

>  <Rbt.Executable>
rbdock ($Id: //depot/dev/client3/rdock/2013.1/src/exe/rbdock.cxx#4 $)

>  <Rbt.Library>
libRbt.so (2013.1, Build901 2013/11/27)

>  <Rbt.Parameter_File>
/home/malgorzata/Desktop/rDock_2013.1_src/data/scripts/dock.prm

>  <Rbt.Receptor>
cavity.prm

>  <SCORE>
-34.8582

>  <SCORE.INTER>
-19.0453

>  <SCORE.INTER.CONST>
1

>  <SCORE.INTER.POLAR>
-2.01759

>  <SCORE.INTER.REPUL>
0

>  <SCORE.INTER.ROT>
9

>  <SCORE.INTER.VDW>
-26.5855

>  <SCORE.INTER.norm>
-0.57713

>  <SCORE.INTRA>
-0.161615

>  <SCORE.INTRA.DIHEDRAL>
-2.03562

>  <SCORE.INTRA.DIHEDRAL.0>
8.37942

>  <SCORE.INTRA.POLAR>
0

>  <SCORE.INTRA.POLAR.0>
0

>  <SCORE.INTRA.REPUL>
0

>  <SCORE.INTRA.REPUL.0>
0

>  <SCORE.INTRA.VDW>
0.856194

>  <SCORE.INTRA.VDW.0>
-0.0658046

>  <SCORE.INTRA.norm>
-0.00489744

>  <SCORE.RESTR>
0

>  <SCORE.RESTR.CAVITY>
0

>  <SCORE.RESTR.norm>
0

>  <SCORE.SYSTEM>
-15.6513

>  <SCORE.SYSTEM.CONST>
0

>  <SCORE.SYSTEM.DIHEDRAL>
6.17413

>  <SCORE.SYSTEM.POLAR>
-5.17347

>  <SCORE.SYSTEM.REPUL>
0.378124

>  <SCORE.SYSTEM.VDW>
-3.03923

>  <SCORE.SYSTEM.norm>
-0.474283

>  <SCORE.heavy>
33

>  <SCORE.norm>
-1.05631

$$$$
FXV.pdb
  rDOCK(R)          3D
libRbt.so/2013.1/901 2013/11/27
 38 40  0  0  0  0  0  0  0  0999 V2000
    3.4357   18.9818   12.0106 C   0  0  0  0  0  0
    4.2352   18.6772   13.1617 C   0  0  0  0  0  0
    5.6078   19.1200   13.1665 C   0  0  0  0  0  0
    6.1381   19.8386   12.0449 C   0  0  0  0  0  0
    5.3628   20.1230   10.9479 N   0  0  0  0  0  0
    4.0358   19.7008   10.9341 C   0  0  0  0  0  0
    3.6610   17.3704   16.7770 C   0  0  0  0  0  0
    2.4930   16.5111   16.5973 C   0  0  0  0  0  0
    1.9395   16.3881   15.2721 C   0  0  0  0  0  0
    2.5064   17.0817   14.1611 C   0  0  0  0  0  0
    3.6503   17.9320   14.3233 C   0  0  0  0  0  0
    4.2089   18.0573   15.6423 C   0  0  0  0  0  0
    1.8447   15.7849   17.6838 C   0  0  0  0  0  0
    0.5866   15.3829   17.4179 N   0  0  0  0  0  0
   -0.2087   14.6148   18.3421 C   0  0  0  0  0  0
   -0.2904   13.1715   17.7992 C   0  0  0  0  0  0
   -1.6024   15.3282   18.5078 C   0  0  0  0  0  0
   -2.4313   14.5987   19.5813 C   0  0  0  0  0  0
   -1.9056   14.7747   20.8238 O   0  0  0  0  0  0
   -2.4218   15.4620   17.1454 C   0  0  0  0  0  0
   -3.4692   17.2430   15.5086 C   0  0  0  0  0  0
   -4.0229   18.5733   15.2621 C   0  0  0  0  0  0
   -4.1120   19.5045   16.3743 C   0  0  0  0  0  0
   -3.6695   19.1247   17.6816 C   0  0  0  0  0  0
   -3.1249   17.8115   17.9128 C   0  0  0  0  0  0
   -3.0146   16.8474   16.8429 C   0  0  0  0  0  0
   -4.4796   18.9739   13.9291 C   0  0  0  0  0  0
   -4.8793   20.2222   13.6698 N   0  0  0  0  0  0
   -4.4917   18.0631   12.9395 N   0  0  0  0  0  0
   -3.3954   13.9573   19.3441 O   0  0  0  0  0  0
    2.4142   15.5365   18.7633 O   0  0  0  0  0  0
   -2.4992   14.2047   21.9929 C   0  0  0  0  0  0
    5.8651   20.8052    9.8806 O   0  0  0  0  0  0
    0.1912   15.6258   16.5496 H   0  0  0  0  0  0
   -4.8754   20.8988   14.3850 H   0  0  0  0  0  0
   -4.1998   17.1397   13.1167 H   0  0  0  0  0  0
   -4.7924   18.3198   12.0378 H   0  0  0  0  0  0
    6.7514   21.1355   10.0961 H   0  0  0  0  0  0
  1  2  1  0  0  0
  1  6  2  0  0  0
  2  3  1  0  0  0
  2 11  1  0  0  0
  3  4  2  0  0  0
  4  5  1  0  0  0
  5  6  1  0  0  0
  5 33  1  0  0  0
  7  8  2  0  0  0
  7 12  1  0  0  0
  8  9  1  0  0  0
  8 13  1  0  0  0
  9 10  2  0  0  0
 10 11  1  0  0  0
 11 12  2  0  0  0
 13 14  1  0  0  0
 13 31  2  0  0  0
 14 15  1  0  0  0
 14 34  1  0  0  0
 15 16  1  0  0  0
 15 17  1  0  0  0
 17 18  1  0  0  0
 17 20  1  0  0  0
 18 19  1  0  0  0
 18 30  2  0  0  0
 19 32  1  0  0  0
 20 26  1  0  0  0
 21 22  2  0  0  0
 21 26  1  0  0  0
 22 23  1  0  0  0
 22 27  1  0  0  0
 23 24  2  0  0  0
 24 25  1  0  0  0
 25 26  2  0  0  0
 27 28  2  0  0  0
 27 29  1  0  0  0
 28 35  1  0  0  0
 29 36  1  0  0  0
 29 37  1  0  0  0
 33 38  1  0  0  0
M  END
>  <CHROM.0>
-157.29158456,4.34177163,101.09522282,-92.87761078,105.35598258,76.46664424
179.82998566,1.48384406,174.91164606

>  <CHROM.1>
23.68142334,-8.09763793,161.05648114,-106.92994715,-175.17606682,69.24978128
-132.16728705,179.52771667,163.00698084,-174.15661100,0.22335054,17.23230163
15.85232624,0.76182665,0.11879643,-0.92795843

>  <FORMUL>
      FXV    C25 H27 N4 O4 1+

>  <HET>
 FXV  A 401      33

>  <HETNAM>
     FXV METHYL-3-(4'-N-OXOPYRIDYLPHENOYL)-3-METHYL-2-(M-AMIDINO
   2 FXV BENZYL)-PROPIONATE

>  <HETSYN>
     FXV FXV673

>  <Name>
FXV.pdb

>  <RI>
0

>  <Rbt.Current_Directory>
/home/malgorzata/Desktop/rDOCK_IFD/Wyniki/8_factor_Xa2/IFD

>  <Rbt.Executable>
rbdock ($Id: //depot/dev/client3/rdock/2013.1/src/exe/rbdock.cxx#4 $)

>  <Rbt.Library>
libRbt.so (2013.1, Build901 2013/11/27)

>  <Rbt.Parameter_File>
/home/malgorzata/Desktop/rDock_2013.1_src/data/scripts/dock.prm

>  <Rbt.Receptor>
cavity.prm

>  <SCORE>
-34.0078

>  <SCORE.INTER>
-19.5767

>  <SCORE.INTER.CONST>
1

>  <SCORE.INTER.POLAR>
-0.894427

>  <SCORE.INTER.REPUL>
0

>  <SCORE.INTER.ROT>
9

>  <SCORE.INTER.VDW>
-30.9356

>  <SCORE.INTER.norm>
-0.593233

>  <SCORE.INTRA>
2.16007

>  <SCORE.INTRA.DIHEDRAL>
1.6603

>  <SCORE.INTRA.DIHEDRAL.0>
8.37942

>  <SCORE.INTRA.POLAR>
0

>  <SCORE.INTRA.POLAR.0>
0

>  <SCORE.INTRA.REPUL>
0

>  <SCORE.INTRA.REPUL.0>
0

>  <SCORE.INTRA.VDW>
1.32992

>  <SCORE.INTRA.VDW.0>
-0.0658046

>  <SCORE.INTRA.norm>
0.0654565

>  <SCORE.RESTR>
0

>  <SCORE.RESTR.CAVITY>
0

>  <SCORE.RESTR.norm>
0

>  <SCORE.SYSTEM>
-16.5912

>  <SCORE.SYSTEM.CONST>
0

>  <SCORE.SYSTEM.DIHEDRAL>
6.75564

>  <SCORE.SYSTEM.POLAR>
-5.33017

>  <SCORE.SYSTEM.REPUL>
0.0423959

>  <SCORE.SYSTEM.VDW>
-2.05842

>  <SCORE.SYSTEM.norm>
-0.502763

>  <SCORE.heavy>
33

>  <SCORE.norm>
-1.03054

$$$$
FXV.pdb
  rDOCK(R)          3D
libRbt.so/2013.1/901 2013/11/27
 38 40  0  0  0  0  0  0  0  0999 V2000
   -1.9195   25.4387   16.6795 C   0  0  0  0  0  0
   -1.6817   24.3214   15.8122 C   0  0  0  0  0  0
   -0.8954   24.5448   14.6239 C   0  0  0  0  0  0
   -0.3789   25.8508   14.3354 C   0  0  0  0  0  0
   -0.6147   26.9130   15.1730 N   0  0  0  0  0  0
   -1.3718   26.7073   16.3236 C   0  0  0  0  0  0
   -2.4628   21.0512   17.7623 C   0  0  0  0  0  0
   -3.3169   20.3398   16.8138 C   0  0  0  0  0  0
   -3.5975   20.9711   15.5488 C   0  0  0  0  0  0
   -3.0636   22.2537   15.2221 C   0  0  0  0  0  0
   -2.2272   22.9656   16.1450 C   0  0  0  0  0  0
   -1.9414   22.3404   17.4078 C   0  0  0  0  0  0
   -3.9156   19.0365   17.0800 C   0  0  0  0  0  0
   -3.6238   18.5215   18.2903 N   0  0  0  0  0  0
   -4.1513   17.2663   18.7622 C   0  0  0  0  0  0
   -5.1140   17.5745   19.9296 C   0  0  0  0  0  0
   -2.9421   16.3331   19.1441 C   0  0  0  0  0  0
   -2.2001   15.9005   17.8659 C   0  0  0  0  0  0
   -1.6840   16.9698   17.2015 O   0  0  0  0  0  0
   -3.3596   15.0664   20.0197 C   0  0  0  0  0  0
   -1.0437   14.6470   21.2065 C   0  0  0  0  0  0
    0.0276   13.7431   21.6216 C   0  0  0  0  0  0
   -0.0896   12.3321   21.2940 C   0  0  0  0  0  0
   -1.2305   11.8401   20.5831 C   0  0  0  0  0  0
   -2.2798   12.7400   20.1784 C   0  0  0  0  0  0
   -2.2136   14.1512   20.4793 C   0  0  0  0  0  0
    1.2000   14.2342   22.3499 C   0  0  0  0  0  0
    2.2412   13.4416   22.6199 N   0  0  0  0  0  0
    1.2313   15.5172   22.7524 N   0  0  0  0  0  0
   -2.1070   14.7779   17.5078 O   0  0  0  0  0  0
   -4.6550   18.4544   16.2640 O   0  0  0  0  0  0
   -0.9481   16.8306   15.9836 C   0  0  0  0  0  0
   -0.1252   28.1551   14.9002 O   0  0  0  0  0  0
   -3.0206   19.0276   18.8813 H   0  0  0  0  0  0
    2.2314   12.5005   22.3310 H   0  0  0  0  0  0
    0.4708   16.1121   22.5601 H   0  0  0  0  0  0
    2.0148   15.8614   23.2392 H   0  0  0  0  0  0
   -0.6665   28.8220   15.3509 H   0  0  0  0  0  0
  1  2  1  0  0  0
  1  6  2  0  0  0
  2  3  1  0  0  0
  2 11  1  0  0  0
  3  4  2  0  0  0
  4  5  1  0  0  0
  5  6  1  0  0  0
  5 33  1  0  0  0
  7  8  2  0  0  0
  7 12  1  0  0  0
  8  9  1  0  0  0
  8 13  1  0  0  0
  9 10  2  0  0  0
 10 11  1  0  0  0
 11 12  2  0  0  0
 13 14  1  0  0  0
 13 31  2  0  0  0
 14 15  1  0  0  0
 14 34  1  0  0  0
 15 16  1  0  0  0
 15 17  1  0  0  0
 17 18  1  0  0  0
 17 20  1  0  0  0
 18 19  1  0  0  0
 18 30  2  0  0  0
 19 32  1  0  0  0
 20 26  1  0  0  0
 21 22  2  0  0  0
 21 26  1  0  0  0
 22 23  1  0  0  0
 22 27  1  0  0  0
 23 24  2  0  0  0
 24 25  1  0  0  0
 25 26  2  0  0  0
 27 28  2  0  0  0
 27 29  1  0  0  0
 28 35  1  0  0  0
 29 36  1  0  0  0
 29 37  1  0  0  0
 33 38  1  0  0  0
M  END
>  <CHROM.0>
-157.29323060,9.58076162,-77.35021127,-139.78396922,40.78281420,75.92319660
61.57541127,2.71687547,175.20650376

>  <CHROM.1>
124.30206616,156.41304102,0.16899806,-112.28346279,-69.78903043,61.65543916
-177.28667191,179.94562985,53.79057315,-173.45353689,-1.81747123,18.84203256
18.10464597,-1.62170131,0.52187079,2.72920493

>  <FORMUL>
      FXV    C25 H27 N4 O4 1+

>  <HET>
 FXV  A 401      33

>  <HETNAM>
     FXV METHYL-3-(4'-N-OXOPYRIDYLPHENOYL)-3-METHYL-2-(M-AMIDINO
   2 FXV BENZYL)-PROPIONATE

>  <HETSYN>
     FXV FXV673

>  <Name>
FXV.pdb

>  <RI>
0

>  <Rbt.Current_Directory>
/home/malgorzata/Desktop/rDOCK_IFD/Wyniki/8_factor_Xa2/IFD

>  <Rbt.Executable>
rbdock ($Id: //depot/dev/client3/rdock/2013.1/src/exe/rbdock.cxx#4 $)

>  <Rbt.Library>
libRbt.so (2013.1, Build901 2013/11/27)

>  <Rbt.Parameter_File>
/home/malgorzata/Desktop/rDock_2013.1_src/data/scripts/dock.prm

>  <Rbt.Receptor>
cavity.prm

>  <SCORE>
-32.2101

>  <SCORE.INTER>
-13.3772

>  <SCORE.INTER.CONST>
1

>  <SCORE.INTER.POLAR>
-1.55462

>  <SCORE.INTER.REPUL>
0.0199876

>  <SCORE.INTER.ROT>
9

>  <SCORE.INTER.VDW>
-22.5914

>  <SCORE.INTER.norm>
-0.405368

>  <SCORE.INTRA>
-2.64144

>  <SCORE.INTRA.DIHEDRAL>
-3.82589

>  <SCORE.INTRA.DIHEDRAL.0>
8.37942

>  <SCORE.INTRA.POLAR>
0

>  <SCORE.INTRA.POLAR.0>
0

>  <SCORE.INTRA.REPUL>
0

>  <SCORE.INTRA.REPUL.0>
0

>  <SCORE.INTRA.VDW>
-0.728499

>  <SCORE.INTRA.VDW.0>
-0.0658046

>  <SCORE.INTRA.norm>
-0.0800437

>  <SCORE.RESTR>
0

>  <SCORE.RESTR.CAVITY>
0

>  <SCORE.RESTR.norm>
0

>  <SCORE.SYSTEM>
-16.1915

>  <SCORE.SYSTEM.CONST>
0

>  <SCORE.SYSTEM.DIHEDRAL>
8.08419

>  <SCORE.SYSTEM.POLAR>
-5.48006

>  <SCORE.SYSTEM.REPUL>
0.135463

>  <SCORE.SYSTEM.VDW>
-2.27871

>  <SCORE.SYSTEM.norm>
-0.490651

>  <SCORE.heavy>
33

>  <SCORE.norm>
-0.976063

$$$$
FXV.pdb
  rDOCK(R)          3D
libRbt.so/2013.1/901 2013/11/27
 38 40  0  0  0  0  0  0  0  0999 V2000
   -1.8689   25.3599   16.6838 C   0  0  0  0  0  0
   -1.4957   24.3458   15.7407 C   0  0  0  0  0  0
   -0.6351   24.7249   14.6472 C   0  0  0  0  0  0
   -0.1797   26.0786   14.5233 C   0  0  0  0  0  0
   -0.5450   27.0409   15.4321 N   0  0  0  0  0  0
   -1.3749   26.6847   16.4922 C   0  0  0  0  0  0
   -3.8407   21.2461   15.7685 C   0  0  0  0  0  0
   -2.9224   20.1860   16.1783 C   0  0  0  0  0  0
   -1.5505   20.5418   16.4413 C   0  0  0  0  0  0
   -1.0913   21.8863   16.3072 C   0  0  0  0  0  0
   -1.9804   22.9366   15.9016 C   0  0  0  0  0  0
   -3.3508   22.5889   15.6399 C   0  0  0  0  0  0
   -3.3094   18.7866   16.3196 C   0  0  0  0  0  0
   -2.5545   17.9216   15.6146 N   0  0  0  0  0  0
   -2.7460   16.4939   15.6526 C   0  0  0  0  0  0
   -1.5587   15.8847   16.4296 C   0  0  0  0  0  0
   -2.8919   15.9742   14.1735 C   0  0  0  0  0  0
   -4.0573   16.7056   13.4820 C   0  0  0  0  0  0
   -4.9820   17.1360   14.3824 O   0  0  0  0  0  0
   -3.0631   14.3918   14.0625 C   0  0  0  0  0  0
   -1.9938   12.5784   15.6487 C   0  0  0  0  0  0
   -0.8408   11.7954   16.0899 C   0  0  0  0  0  0
    0.4325   11.9973   15.4191 C   0  0  0  0  0  0
    0.5522   12.9403   14.3487 C   0  0  0  0  0  0
   -0.5903   13.7069   13.9228 C   0  0  0  0  0  0
   -1.8790   13.5446   14.5547 C   0  0  0  0  0  0
   -0.9505   10.8271   17.1837 C   0  0  0  0  0  0
   -2.1164   10.2577   17.5027 N   0  0  0  0  0  0
    0.1517   10.4986   17.8811 N   0  0  0  0  0  0
   -4.1365   16.8579   12.3124 O   0  0  0  0  0  0
   -4.2483   18.4168   17.0498 O   0  0  0  0  0  0
   -6.0761   17.9784   14.0115 C   0  0  0  0  0  0
   -0.1138   28.3283   15.3156 O   0  0  0  0  0  0
   -1.8368   18.2827   15.0454 H   0  0  0  0  0  0
   -2.9309   10.4891   17.0003 H   0  0  0  0  0  0
    1.0172   10.9106   17.6566 H   0  0  0  0  0  0
    0.0929    9.8462   18.6161 H   0  0  0  0  0  0
   -0.8219   28.9324   15.5888 H   0  0  0  0  0  0
  1  2  1  0  0  0
  1  6  2  0  0  0
  2  3  1  0  0  0
  2 11  1  0  0  0
  3  4  2  0  0  0
  4  5  1  0  0  0
  5  6  1  0  0  0
  5 33  1  0  0  0
  7  8  2  0  0  0
  7 12  1  0  0  0
  8  9  1  0  0  0
  8 13  1  0  0  0
  9 10  2  0  0  0
 10 11  1  0  0  0
 11 12  2  0  0  0
 13 14  1  0  0  0
 13 31  2  0  0  0
 14 15  1  0  0  0
 14 34  1  0  0  0
 15 16  1  0  0  0
 15 17  1  0  0  0
 17 18  1  0  0  0
 17 20  1  0  0  0
 18 19  1  0  0  0
 18 30  2  0  0  0
 19 32  1  0  0  0
 20 26  1  0  0  0
 21 22  2  0  0  0
 21 26  1  0  0  0
 22 23  1  0  0  0
 22 27  1  0  0  0
 23 24  2  0  0  0
 24 25  1  0  0  0
 25 26  2  0  0  0
 27 28  2  0  0  0
 27 29  1  0  0  0
 28 35  1  0  0  0
 29 36  1  0  0  0
 29 37  1  0  0  0
 33 38  1  0  0  0
M  END
>  <CHROM.0>
-161.03200477,-161.70177806,-40.42267317,-91.96040780,98.45188695,75.89740003
57.81452540,175.18793851,177.09987744

>  <CHROM.1>
-108.10921929,143.09688499,125.57053816,-108.67292347,-56.98228237,-26.18674623
-63.36485793,172.39634247,119.50985297,24.50607883,-2.08438003,18.39277841
15.48493797,-1.55775471,0.42298123,3.12520684

>  <FORMUL>
      FXV    C25 H27 N4 O4 1+

>  <HET>
 FXV  A 401      33

>  <HETNAM>
     FXV METHYL-3-(4'-N-OXOPYRIDYLPHENOYL)-3-METHYL-2-(M-AMIDINO
   2 FXV BENZYL)-PROPIONATE

>  <HETSYN>
     FXV FXV673

>  <Name>
FXV.pdb

>  <RI>
0

>  <Rbt.Current_Directory>
/home/malgorzata/Desktop/rDOCK_IFD/Wyniki/8_factor_Xa2/IFD

>  <Rbt.Executable>
rbdock ($Id: //depot/dev/client3/rdock/2013.1/src/exe/rbdock.cxx#4 $)

>  <Rbt.Library>
libRbt.so (2013.1, Build901 2013/11/27)

>  <Rbt.Parameter_File>
/home/malgorzata/Desktop/rDock_2013.1_src/data/scripts/dock.prm

>  <Rbt.Receptor>
cavity.prm

>  <SCORE>
-28.0221

>  <SCORE.INTER>
-14.4354

>  <SCORE.INTER.CONST>
1

>  <SCORE.INTER.POLAR>
-1.58269

>  <SCORE.INTER.REPUL>
0

>  <SCORE.INTER.ROT>
9

>  <SCORE.INTER.VDW>
-23.4543

>  <SCORE.INTER.norm>
-0.437436

>  <SCORE.INTRA>
2.89909

>  <SCORE.INTRA.DIHEDRAL>
9.81281

>  <SCORE.INTRA.DIHEDRAL.0>
8.37942

>  <SCORE.INTRA.POLAR>
0

>  <SCORE.INTRA.POLAR.0>
0

>  <SCORE.INTRA.REPUL>
0

>  <SCORE.INTRA.REPUL.0>
0

>  <SCORE.INTRA.VDW>
-2.00731

>  <SCORE.INTRA.VDW.0>
-0.0658046

>  <SCORE.INTRA.norm>
0.0878513

>  <SCORE.RESTR>
0.00535633

>  <SCORE.RESTR.CAVITY>
0.00535633

>  <SCORE.RESTR.norm>
0.000162313

>  <SCORE.SYSTEM>
-16.4911

>  <SCORE.SYSTEM.CONST>
0

>  <SCORE.SYSTEM.DIHEDRAL>
6.91579

>  <SCORE.SYSTEM.POLAR>
-5.45326

>  <SCORE.SYSTEM.VDW>
-1.40794

>  <SCORE.SYSTEM.norm>
-0.499731

>  <SCORE.heavy>
33

>  <SCORE.norm>
-0.849154

$$$$
FXV.pdb
  rDOCK(R)          3D
libRbt.so/2013.1/901 2013/11/27
 38 40  0  0  0  0  0  0  0  0999 V2000
   -0.8145   24.3915   15.2624 C   0  0  0  0  0  0
   -1.9312   24.0210   16.0827 C   0  0  0  0  0  0
   -2.3828   24.9657   17.0746 C   0  0  0  0  0  0
   -1.7212   26.2290   17.2218 C   0  0  0  0  0  0
   -0.6521   26.5716   16.4311 N   0  0  0  0  0  0
   -0.2092   25.6668   15.4696 C   0  0  0  0  0  0
   -3.7797   21.0383   14.4110 C   0  0  0  0  0  0
   -3.8968   20.1021   15.5268 C   0  0  0  0  0  0
   -3.3626   20.5006   16.8049 C   0  0  0  0  0  0
   -2.7344   21.7690   16.9865 C   0  0  0  0  0  0
   -2.6084   22.6965   15.8993 C   0  0  0  0  0  0
   -3.1413   22.3062   14.6222 C   0  0  0  0  0  0
   -4.5070   18.7816   15.4176 C   0  0  0  0  0  0
   -4.3024   17.9792   16.4804 N   0  0  0  0  0  0
   -4.8570   16.6535   16.5871 C   0  0  0  0  0  0
   -5.6597   16.5886   17.9047 C   0  0  0  0  0  0
   -3.6782   15.6142   16.4906 C   0  0  0  0  0  0
   -2.7273   15.7997   17.6877 C   0  0  0  0  0  0
   -1.8576   14.7595   17.8009 O   0  0  0  0  0  0
   -2.8796   15.6748   15.1108 C   0  0  0  0  0  0
   -0.2946   15.8979   14.6459 C   0  0  0  0  0  0
    0.9414   16.6777   14.6812 C   0  0  0  0  0  0
    0.8927   18.0315   15.2073 C   0  0  0  0  0  0
   -0.3396   18.5881   15.6774 C   0  0  0  0  0  0
   -1.5513   17.8104   15.6385 C   0  0  0  0  0  0
   -1.5587   16.4604   15.1248 C   0  0  0  0  0  0
    2.2086   16.1197   14.2027 C   0  0  0  0  0  0
    2.3982   14.8016   14.0931 N   0  0  0  0  0  0
    3.2048   16.9558   13.8598 N   0  0  0  0  0  0
   -2.7645   16.7273   18.4193 O   0  0  0  0  0  0
   -5.1816   18.4297   14.4315 O   0  0  0  0  0  0
   -0.9104   14.6676   18.8679 C   0  0  0  0  0  0
   -0.0215   27.7716   16.5700 O   0  0  0  0  0  0
   -3.7467   18.3151   17.2204 H   0  0  0  0  0  0
    1.6773   14.1784   14.3406 H   0  0  0  0  0  0
    3.0786   17.9292   13.9357 H   0  0  0  0  0  0
    4.0603   16.5943   13.5329 H   0  0  0  0  0  0
   -0.1605   28.1077   17.4692 H   0  0  0  0  0  0
  1  2  1  0  0  0
  1  6  2  0  0  0
  2  3  1  0  0  0
  2 11  1  0  0  0
  3  4  2  0  0  0
  4  5  1  0  0  0
  5  6  1  0  0  0
  5 33  1  0  0  0
  7  8  2  0  0  0
  7 12  1  0  0  0
  8  9  1  0  0  0
  8 13  1  0  0  0
  9 10  2  0  0  0
 10 11  1  0  0  0
 11 12  2  0  0  0
 13 14  1  0  0  0
 13 31  2  0  0  0
 14 15  1  0  0  0
 14 34  1  0  0  0
 15 16  1  0  0  0
 15 17  1  0  0  0
 17 18  1  0  0  0
 17 20  1  0  0  0
 18 19  1  0  0  0
 18 30  2  0  0  0
 19 32  1  0  0  0
 20 26  1  0  0  0
 21 22  2  0  0  0
 21 26  1  0  0  0
 22 23  1  0  0  0
 22 27  1  0  0  0
 23 24  2  0  0  0
 24 25  1  0  0  0
 25 26  2  0  0  0
 27 28  2  0  0  0
 27 29  1  0  0  0
 28 35  1  0  0  0
 29 36  1  0  0  0
 29 37  1  0  0  0
 33 38  1  0  0  0
M  END
>  <CHROM.0>
-167.80234208,9.58059740,93.11030562,67.93226713,124.50887569,77.10356594
65.22905358,-165.59632613,176.57546075

>  <CHROM.1>
123.35618933,24.40362224,168.40245655,-124.67539792,63.69331888,167.34278481
98.94295316,-177.22312081,127.69541348,-20.30201832,-1.82283613,19.39647915
15.99589544,-1.56820258,-0.31003723,-3.13266279

>  <FORMUL>
      FXV    C25 H27 N4 O4 1+

>  <HET>
 FXV  A 401      33

>  <HETNAM>
     FXV METHYL-3-(4'-N-OXOPYRIDYLPHENOYL)-3-METHYL-2-(M-AMIDINO
   2 FXV BENZYL)-PROPIONATE

>  <HETSYN>
     FXV FXV673

>  <Name>
FXV.pdb

>  <RI>
0

>  <Rbt.Current_Directory>
/home/malgorzata/Desktop/rDOCK_IFD/Wyniki/8_factor_Xa2/IFD

>  <Rbt.Executable>
rbdock ($Id: //depot/dev/client3/rdock/2013.1/src/exe/rbdock.cxx#4 $)

>  <Rbt.Library>
libRbt.so (2013.1, Build901 2013/11/27)

>  <Rbt.Parameter_File>
/home/malgorzata/Desktop/rDock_2013.1_src/data/scripts/dock.prm

>  <Rbt.Receptor>
cavity.prm

>  <SCORE>
-35.5965

>  <SCORE.INTER>
-18.1104

>  <SCORE.INTER.CONST>
1

>  <SCORE.INTER.POLAR>
-1.7189

>  <SCORE.INTER.REPUL>
0

>  <SCORE.INTER.ROT>
9

>  <SCORE.INTER.VDW>
-26.6662

>  <SCORE.INTER.norm>
-0.548801

>  <SCORE.INTRA>
-0.607862

>  <SCORE.INTRA.DIHEDRAL>
1.78177

>  <SCORE.INTRA.DIHEDRAL.0>
8.37942

>  <SCORE.INTRA.POLAR>
-0.00185312

>  <SCORE.INTRA.POLAR.0>
0

>  <SCORE.INTRA.REPUL>
0

>  <SCORE.INTRA.REPUL.0>
0

>  <SCORE.INTRA.VDW>
-1.49244

>  <SCORE.INTRA.VDW.0>
-0.0658046

>  <SCORE.INTRA.norm>
-0.0184201

>  <SCORE.RESTR>
0

>  <SCORE.RESTR.CAVITY>
0

>  <SCORE.RESTR.norm>
0

>  <SCORE.SYSTEM>
-16.8782

>  <SCORE.SYSTEM.CONST>
0

>  <SCORE.SYSTEM.DIHEDRAL>
3.48029

>  <SCORE.SYSTEM.POLAR>
-4.9196

>  <SCORE.SYSTEM.REPUL>
0.260112

>  <SCORE.SYSTEM.VDW>
-3.19228

>  <SCORE.SYSTEM.norm>
-0.511461

>  <SCORE.heavy>
33

>  <SCORE.norm>
-1.07868

$$$$
FXV.pdb
  rDOCK(R)          3D
libRbt.so/2013.1/901 2013/11/27
 38 40  0  0  0  0  0  0  0  0999 V2000
    5.0782   18.2835   13.7366 C   0  0  0  0  0  0
    3.7350   17.8390   13.5011 C   0  0  0  0  0  0
    3.1284   18.1656   12.2340 C   0  0  0  0  0  0
    3.8610   18.9141   11.2549 C   0  0  0  0  0  0
    5.1461   19.3353   11.4928 N   0  0  0  0  0  0
    5.7412   19.0239   12.7128 C   0  0  0  0  0  0
    1.3901   15.2083   15.1408 C   0  0  0  0  0  0
    1.5853   15.4855   16.5621 C   0  0  0  0  0  0
    2.4873   16.5487   16.9278 C   0  0  0  0  0  0
    3.1760   17.3137   15.9393 C   0  0  0  0  0  0
    2.9975   17.0501   14.5405 C   0  0  0  0  0  0
    2.0973   15.9924   14.1688 C   0  0  0  0  0  0
    0.9339   14.7375   17.6319 C   0  0  0  0  0  0
    0.0138   13.8466   17.2140 N   0  0  0  0  0  0
   -0.7093   12.9796   18.1094 C   0  0  0  0  0  0
   -0.1929   11.5418   17.8846 C   0  0  0  0  0  0
   -2.2499   13.1672   17.8442 C   0  0  0  0  0  0
   -2.5611   12.8572   16.3682 C   0  0  0  0  0  0
   -1.8675   13.6732   15.5291 O   0  0  0  0  0  0
   -2.8019   14.6066   18.2551 C   0  0  0  0  0  0
   -1.3014   14.7054   20.4200 C   0  0  0  0  0  0
   -1.0829   15.1444   21.7972 C   0  0  0  0  0  0
   -2.1162   15.9343   22.4456 C   0  0  0  0  0  0
   -3.3189   16.2761   21.7487 C   0  0  0  0  0  0
   -3.5239   15.8375   20.3921 C   0  0  0  0  0  0
   -2.5289   15.0511   19.7008 C   0  0  0  0  0  0
    0.1437   14.8016   22.5209 C   0  0  0  0  0  0
    1.2629   14.4532   21.8796 N   0  0  0  0  0  0
    0.1450   14.8440   23.8652 N   0  0  0  0  0  0
   -3.3195   12.0210   16.0178 O   0  0  0  0  0  0
    1.2193   14.8931   18.8343 O   0  0  0  0  0  0
   -2.0350   13.6309   14.1098 C   0  0  0  0  0  0
    5.8437   20.0474   10.5638 O   0  0  0  0  0  0
   -0.1738   13.7849   16.2494 H   0  0  0  0  0  0
    1.2759   14.4181   20.8958 H   0  0  0  0  0  0
   -0.6728   15.0991   24.3505 H   0  0  0  0  0  0
    0.9637   14.6199   24.3641 H   0  0  0  0  0  0
    5.4684   19.8860    9.6841 H   0  0  0  0  0  0
  1  2  1  0  0  0
  1  6  2  0  0  0
  2  3  1  0  0  0
  2 11  1  0  0  0
  3  4  2  0  0  0
  4  5  1  0  0  0
  5  6  1  0  0  0
  5 33  1  0  0  0
  7  8  2  0  0  0
  7 12  1  0  0  0
  8  9  1  0  0  0
  8 13  1  0  0  0
  9 10  2  0  0  0
 10 11  1  0  0  0
 11 12  2  0  0  0
 13 14  1  0  0  0
 13 31  2  0  0  0
 14 15  1  0  0  0
 14 34  1  0  0  0
 15 16  1  0  0  0
 15 17  1  0  0  0
 17 18  1  0  0  0
 17 20  1  0  0  0
 18 19  1  0  0  0
 18 30  2  0  0  0
 19 32  1  0  0  0
 20 26  1  0  0  0
 21 22  2  0  0  0
 21 26  1  0  0  0
 22 23  1  0  0  0
 22 27  1  0  0  0
 23 24  2  0  0  0
 24 25  1  0  0  0
 25 26  2  0  0  0
 27 28  2  0  0  0
 27 29  1  0  0  0
 28 35  1  0  0  0
 29 36  1  0  0  0
 29 37  1  0  0  0
 33 38  1  0  0  0
M  END
>  <CHROM.0>
118.18719170,7.91923275,-96.74944361,-93.85942383,108.91485487,-179.75470956
-178.56767807,8.56877519,175.85799395

>  <CHROM.1>
35.63201132,-22.36756150,-6.73761160,-109.56228979,57.65301517,-59.36600747
-54.60009259,-176.69346534,35.12364839,20.96154463,0.61864073,15.55071117
16.97205498,-0.77532780,0.67723441,1.47553256

>  <FORMUL>
      FXV    C25 H27 N4 O4 1+

>  <HET>
 FXV  A 401      33

>  <HETNAM>
     FXV METHYL-3-(4'-N-OXOPYRIDYLPHENOYL)-3-METHYL-2-(M-AMIDINO
   2 FXV BENZYL)-PROPIONATE

>  <HETSYN>
     FXV FXV673

>  <Name>
FXV.pdb

>  <RI>
0

>  <Rbt.Current_Directory>
/home/malgorzata/Desktop/rDOCK_IFD/Wyniki/8_factor_Xa2/IFD

>  <Rbt.Executable>
rbdock ($Id: //depot/dev/client3/rdock/2013.1/src/exe/rbdock.cxx#4 $)

>  <Rbt.Library>
libRbt.so (2013.1, Build901 2013/11/27)

>  <Rbt.Parameter_File>
/home/malgorzata/Desktop/rDock_2013.1_src/data/scripts/dock.prm

>  <Rbt.Receptor>
cavity.prm

>  <SCORE>
-37.5951

>  <SCORE.INTER>
-16.0592

>  <SCORE.INTER.CONST>
1

>  <SCORE.INTER.POLAR>
-1.11803

>  <SCORE.INTER.REPUL>
0.105648

>  <SCORE.INTER.ROT>
9

>  <SCORE.INTER.VDW>
-27.1861

>  <SCORE.INTER.norm>
-0.486642

>  <SCORE.INTRA>
-7.61775

>  <SCORE.INTRA.DIHEDRAL>
-2.44888

>  <SCORE.INTRA.DIHEDRAL.0>
8.37942

>  <SCORE.INTRA.POLAR>
-1.48326

>  <SCORE.INTRA.POLAR.0>
0

>  <SCORE.INTRA.REPUL>
0

>  <SCORE.INTRA.REPUL.0>
0

>  <SCORE.INTRA.VDW>
-1.35021

>  <SCORE.INTRA.VDW.0>
-0.0658046

>  <SCORE.INTRA.norm>
-0.230841

>  <SCORE.RESTR>
0

>  <SCORE.RESTR.CAVITY>
0

>  <SCORE.RESTR.norm>
0

>  <SCORE.SYSTEM>
-13.9182

>  <SCORE.SYSTEM.CONST>
0

>  <SCORE.SYSTEM.DIHEDRAL>
5.81967

>  <SCORE.SYSTEM.POLAR>
-4.3547

>  <SCORE.SYSTEM.REPUL>
0.0450574

>  <SCORE.SYSTEM.VDW>
-2.24732

>  <SCORE.SYSTEM.norm>
-0.421763

>  <SCORE.heavy>
33

>  <SCORE.norm>
-1.13925

$$$$
FXV.pdb
  rDOCK(R)          3D
libRbt.so/2013.1/901 2013/11/27
 38 40  0  0  0  0  0  0  0  0999 V2000
    2.8987   18.5106   11.8671 C   0  0  0  0  0  0
    3.2416   18.2840   13.2412 C   0  0  0  0  0  0
    4.5658   18.6546   13.6763 C   0  0  0  0  0  0
    5.4962   19.2278   12.7484 C   0  0  0  0  0  0
    5.1565   19.4385   11.4347 N   0  0  0  0  0  0
    3.8798   19.0852   11.0050 C   0  0  0  0  0  0
   -0.1397   17.4138   14.9493 C   0  0  0  0  0  0
    0.2922   16.5109   16.0138 C   0  0  0  0  0  0
    1.7006   16.2284   16.1333 C   0  0  0  0  0  0
    2.6541   16.8067   15.2426 C   0  0  0  0  0  0
    2.2443   17.6913   14.1903 C   0  0  0  0  0  0
    0.8409   17.9792   14.0670 C   0  0  0  0  0  0
   -0.6207   15.8657   16.9511 C   0  0  0  0  0  0
   -1.9264   16.0096   16.6518 N   0  0  0  0  0  0
   -2.9844   15.4124   17.4267 C   0  0  0  0  0  0
   -2.8735   15.9593   18.8665 C   0  0  0  0  0  0
   -2.8587   13.8471   17.3131 C   0  0  0  0  0  0
   -3.2566   13.3989   15.8945 C   0  0  0  0  0  0
   -2.3272   13.7718   14.9735 O   0  0  0  0  0  0
   -3.6919   13.0537   18.4185 C   0  0  0  0  0  0
   -1.7001   13.4501   20.0989 C   0  0  0  0  0  0
   -1.1054   13.2964   21.4255 C   0  0  0  0  0  0
   -1.8649   12.5986   22.4494 C   0  0  0  0  0  0
   -3.1670   12.0768   22.1641 C   0  0  0  0  0  0
   -3.7428   12.2334   20.8532 C   0  0  0  0  0  0
   -3.0313   12.9191   19.7997 C   0  0  0  0  0  0
    0.2259   13.8262   21.7300 C   0  0  0  0  0  0
    0.8132   13.6121   22.9110 N   0  0  0  0  0  0
    0.8760   14.5419   20.7950 N   0  0  0  0  0  0
   -4.2538   12.8154   15.6448 O   0  0  0  0  0  0
   -0.2264   15.2155   17.9375 O   0  0  0  0  0  0
   -2.4884   13.5130   13.5766 C   0  0  0  0  0  0
    6.0396   19.9825   10.5510 O   0  0  0  0  0  0
   -2.1697   16.5491   15.8650 H   0  0  0  0  0  0
    0.3486   13.0900   23.6043 H   0  0  0  0  0  0
    0.4548   14.7072   19.9206 H   0  0  0  0  0  0
    1.7730   14.9005   20.9850 H   0  0  0  0  0  0
    5.6287   20.0347    9.6739 H   0  0  0  0  0  0
  1  2  1  0  0  0
  1  6  2  0  0  0
  2  3  1  0  0  0
  2 11  1  0  0  0
  3  4  2  0  0  0
  4  5  1  0  0  0
  5  6  1  0  0  0
  5 33  1  0  0  0
  7  8  2  0  0  0
  7 12  1  0  0  0
  8  9  1  0  0  0
  8 13  1  0  0  0
  9 10  2  0  0  0
 10 11  1  0  0  0
 11 12  2  0  0  0
 13 14  1  0  0  0
 13 31  2  0  0  0
 14 15  1  0  0  0
 14 34  1  0  0  0
 15 16  1  0  0  0
 15 17  1  0  0  0
 17 18  1  0  0  0
 17 20  1  0  0  0
 18 19  1  0  0  0
 18 30  2  0  0  0
 19 32  1  0  0  0
 20 26  1  0  0  0
 21 22  2  0  0  0
 21 26  1  0  0  0
 22 23  1  0  0  0
 22 27  1  0  0  0
 23 24  2  0  0  0
 24 25  1  0  0  0
 25 26  2  0  0  0
 27 28  2  0  0  0
 27 29  1  0  0  0
 28 35  1  0  0  0
 29 36  1  0  0  0
 29 37  1  0  0  0
 33 38  1  0  0  0
M  END
>  <CHROM.0>
113.44851329,-158.88013412,96.13253964,65.62661172,106.09221675,75.61446841
-64.82580946,6.40285321,173.90282548

>  <CHROM.1>
145.21683790,178.74350733,9.02699755,59.53611134,-71.04216972,70.51916045
-81.49709723,-177.79907474,-1.52015326,-175.42313723,-0.04001234,15.55518574
16.65082458,0.90719796,-0.46722567,-1.29227270

>  <FORMUL>
      FXV    C25 H27 N4 O4 1+

>  <HET>
 FXV  A 401      33

>  <HETNAM>
     FXV METHYL-3-(4'-N-OXOPYRIDYLPHENOYL)-3-METHYL-2-(M-AMIDINO
   2 FXV BENZYL)-PROPIONATE

>  <HETSYN>
     FXV FXV673

>  <Name>
FXV.pdb

>  <RI>
0

>  <Rbt.Current_Directory>
/home/malgorzata/Desktop/rDOCK_IFD/Wyniki/8_factor_Xa2/IFD

>  <Rbt.Executable>
rbdock ($Id: //depot/dev/client3/rdock/2013.1/src/exe/rbdock.cxx#4 $)

>  <Rbt.Library>
libRbt.so (2013.1, Build901 2013/11/27)

>  <Rbt.Parameter_File>
/home/malgorzata/Desktop/rDock_2013.1_src/data/scripts/dock.prm

>  <Rbt.Receptor>
cavity.prm

>  <SCORE>
-30.0741

>  <SCORE.INTER>
-11.2973

>  <SCORE.INTER.CONST>
1

>  <SCORE.INTER.POLAR>
-1.11803

>  <SCORE.INTER.REPUL>
0

>  <SCORE.INTER.ROT>
9

>  <SCORE.INTER.VDW>
-21.896

>  <SCORE.INTER.norm>
-0.342344

>  <SCORE.INTRA>
-2.8625

>  <SCORE.INTRA.DIHEDRAL>
-2.33032

>  <SCORE.INTRA.DIHEDRAL.0>
8.37942

>  <SCORE.INTRA.POLAR>
-0.978377

>  <SCORE.INTRA.POLAR.0>
0

>  <SCORE.INTRA.REPUL>
0

>  <SCORE.INTRA.REPUL.0>
0

>  <SCORE.INTRA.VDW>
1.62914

>  <SCORE.INTRA.VDW.0>
-0.0658046

>  <SCORE.INTRA.norm>
-0.0867424

>  <SCORE.RESTR>
0

>  <SCORE.RESTR.CAVITY>
0

>  <SCORE.RESTR.norm>
0

>  <SCORE.SYSTEM>
-15.9142

>  <SCORE.SYSTEM.CONST>
0

>  <SCORE.SYSTEM.DIHEDRAL>
3.47343

>  <SCORE.SYSTEM.POLAR>
-4.88251

>  <SCORE.SYSTEM.REPUL>
0.260112

>  <SCORE.SYSTEM.VDW>
-2.35096

>  <SCORE.SYSTEM.norm>
-0.482249

>  <SCORE.heavy>
33

>  <SCORE.norm>
-0.911335

$$$$
FXV.pdb
  rDOCK(R)          3D
libRbt.so/2013.1/901 2013/11/27
 38 40  0  0  0  0  0  0  0  0999 V2000
    3.3811   18.8413   11.9679 C   0  0  0  0  0  0
    4.1414   18.5586   13.1508 C   0  0  0  0  0  0
    5.4942   19.0542   13.2181 C   0  0  0  0  0  0
    6.0439   19.8019   12.1253 C   0  0  0  0  0  0
    5.3062   20.0650   10.9974 N   0  0  0  0  0  0
    3.9986   19.5917   10.9232 C   0  0  0  0  0  0
    2.0617   15.9100   15.0917 C   0  0  0  0  0  0
    2.3829   16.2418   16.4780 C   0  0  0  0  0  0
    3.2770   17.3459   16.7210 C   0  0  0  0  0  0
    3.8392   18.0989   15.6469 C   0  0  0  0  0  0
    3.5364   17.7819   14.2810 C   0  0  0  0  0  0
    2.6432   16.6831   14.0316 C   0  0  0  0  0  0
    1.8650   15.5099   17.6287 C   0  0  0  0  0  0
    0.8052   14.7219   17.3620 N   0  0  0  0  0  0
    0.1748   13.8850   18.3513 C   0  0  0  0  0  0
   -0.2154   12.5600   17.6610 C   0  0  0  0  0  0
   -1.0361   14.6776   18.9715 C   0  0  0  0  0  0
   -1.6334   13.8746   20.1420 C   0  0  0  0  0  0
   -0.7182   13.6728   21.1282 O   0  0  0  0  0  0
   -2.1621   15.0646   17.9096 C   0  0  0  0  0  0
   -3.0178   17.5135   17.4420 C   0  0  0  0  0  0
   -2.8576   18.8154   16.7965 C   0  0  0  0  0  0
   -1.6923   19.0341   15.9561 C   0  0  0  0  0  0
   -0.7229   17.9977   15.7682 C   0  0  0  0  0  0
   -0.8914   16.7186   16.4085 C   0  0  0  0  0  0
   -2.0306   16.4488   17.2546 C   0  0  0  0  0  0
   -3.8423   19.8842   16.9813 C   0  0  0  0  0  0
   -3.7381   21.0527   16.3417 N   0  0  0  0  0  0
   -4.8808   19.6820   17.8118 N   0  0  0  0  0  0
   -2.7460   13.4762   20.1657 O   0  0  0  0  0  0
    2.3734   15.5889   18.7630 O   0  0  0  0  0  0
   -1.0209   12.9301   22.3118 C   0  0  0  0  0  0
    5.8272   20.7748    9.9574 O   0  0  0  0  0  0
    0.4438   14.7176   16.4462 H   0  0  0  0  0  0
   -2.9830   21.2139   15.7310 H   0  0  0  0  0  0
   -4.9697   18.8257   18.2894 H   0  0  0  0  0  0
   -5.5520   20.3903   17.9422 H   0  0  0  0  0  0
    6.7102   21.0975   10.1964 H   0  0  0  0  0  0
  1  2  1  0  0  0
  1  6  2  0  0  0
  2  3  1  0  0  0
  2 11  1  0  0  0
  3  4  2  0  0  0
  4  5  1  0  0  0
  5  6  1  0  0  0
  5 33  1  0  0  0
  7  8  2  0  0  0
  7 12  1  0  0  0
  8  9  1  0  0  0
  8 13  1  0  0  0
  9 10  2  0  0  0
 10 11  1  0  0  0
 11 12  2  0  0  0
 13 14  1  0  0  0
 13 31  2  0  0  0
 14 15  1  0  0  0
 14 34  1  0  0  0
 15 16  1  0  0  0
 15 17  1  0  0  0
 17 18  1  0  0  0
 17 20  1  0  0  0
 18 19  1  0  0  0
 18 30  2  0  0  0
 19 32  1  0  0  0
 20 26  1  0  0  0
 21 22  2  0  0  0
 21 26  1  0  0  0
 22 23  1  0  0  0
 22 27  1  0  0  0
 23 24  2  0  0  0
 24 25  1  0  0  0
 25 26  2  0  0  0
 27 28  2  0  0  0
 27 29  1  0  0  0
 28 35  1  0  0  0
 29 36  1  0  0  0
 29 37  1  0  0  0
 33 38  1  0  0  0
M  END
>  <CHROM.0>
-158.93751576,-150.00485592,-81.48021135,64.19474030,111.31564344,72.93364029
-65.39939582,176.58081876,174.61967641

>  <CHROM.1>
-143.23174645,-5.09501949,-16.22456610,-141.45041327,-173.67392627,60.64190162
-92.91689487,-178.72482592,-115.75043785,-176.57246466,0.70211014,16.99531652
16.28153007,0.84611971,0.39356464,-0.69868874

>  <FORMUL>
      FXV    C25 H27 N4 O4 1+

>  <HET>
 FXV  A 401      33

>  <HETNAM>
     FXV METHYL-3-(4'-N-OXOPYRIDYLPHENOYL)-3-METHYL-2-(M-AMIDINO
   2 FXV BENZYL)-PROPIONATE

>  <HETSYN>
     FXV FXV673

>  <Name>
FXV.pdb

>  <RI>
0

>  <Rbt.Current_Directory>
/home/malgorzata/Desktop/rDOCK_IFD/Wyniki/8_factor_Xa2/IFD

>  <Rbt.Executable>
rbdock ($Id: //depot/dev/client3/rdock/2013.1/src/exe/rbdock.cxx#4 $)

>  <Rbt.Library>
libRbt.so (2013.1, Build901 2013/11/27)

>  <Rbt.Parameter_File>
/home/malgorzata/Desktop/rDock_2013.1_src/data/scripts/dock.prm

>  <Rbt.Receptor>
cavity.prm

>  <SCORE>
-36.3663

>  <SCORE.INTER>
-19.0715

>  <SCORE.INTER.CONST>
1

>  <SCORE.INTER.POLAR>
-0.892191

>  <SCORE.INTER.REPUL>
0

>  <SCORE.INTER.ROT>
9

>  <SCORE.INTER.VDW>
-30.4381

>  <SCORE.INTER.norm>
-0.577926

>  <SCORE.INTRA>
-0.752732

>  <SCORE.INTRA.DIHEDRAL>
-0.820627

>  <SCORE.INTRA.DIHEDRAL.0>
8.37942

>  <SCORE.INTRA.POLAR>
0

>  <SCORE.INTRA.POLAR.0>
0

>  <SCORE.INTRA.REPUL>
0

>  <SCORE.INTRA.REPUL.0>
0

>  <SCORE.INTRA.VDW>
-0.342419

>  <SCORE.INTRA.VDW.0>
-0.0658046

>  <SCORE.INTRA.norm>
-0.0228101

>  <SCORE.RESTR>
0

>  <SCORE.RESTR.CAVITY>
0

>  <SCORE.RESTR.norm>
0

>  <SCORE.SYSTEM>
-16.542

>  <SCORE.SYSTEM.CONST>
0

>  <SCORE.SYSTEM.DIHEDRAL>
3.57955

>  <SCORE.SYSTEM.POLAR>
-4.93949

>  <SCORE.SYSTEM.REPUL>
0.260112

>  <SCORE.SYSTEM.VDW>
-2.83804

>  <SCORE.SYSTEM.norm>
-0.501272

>  <SCORE.heavy>
33

>  <SCORE.norm>
-1.10201

$$$$
FXV.pdb
  rDOCK(R)          3D
libRbt.so/2013.1/901 2013/11/27
 38 40  0  0  0  0  0  0  0  0999 V2000
   -0.8482   24.5148   15.6965 C   0  0  0  0  0  0
   -1.8707   24.5323   16.7021 C   0  0  0  0  0  0
   -2.2786   25.8120   17.2275 C   0  0  0  0  0  0
   -1.6672   27.0170   16.7482 C   0  0  0  0  0  0
   -0.6881   26.9869   15.7859 N   0  0  0  0  0  0
   -0.2881   25.7563   15.2713 C   0  0  0  0  0  0
   -2.4128   20.7542   17.4366 C   0  0  0  0  0  0
   -3.6978   20.7710   18.1320 C   0  0  0  0  0  0
   -4.3472   22.0432   18.3254 C   0  0  0  0  0  0
   -3.7609   23.2572   17.8573 C   0  0  0  0  0  0
   -2.4980   23.2565   17.1769 C   0  0  0  0  0  0
   -1.8459   21.9905   16.9785 C   0  0  0  0  0  0
   -4.3525   19.5776   18.6565 C   0  0  0  0  0  0
   -3.6242   18.4485   18.5575 N   0  0  0  0  0  0
   -4.0732   17.1731   19.0557 C   0  0  0  0  0  0
   -3.5203   17.0112   20.4884 C   0  0  0  0  0  0
   -3.6083   16.0562   18.0481 C   0  0  0  0  0  0
   -4.2852   14.7209   18.4092 C   0  0  0  0  0  0
   -3.7756   14.1966   19.5566 O   0  0  0  0  0  0
   -2.0241   15.8892   17.9602 C   0  0  0  0  0  0
   -0.3167   17.0173   16.2988 C   0  0  0  0  0  0
    0.2474   17.1606   14.9577 C   0  0  0  0  0  0
   -0.2919   16.3391   13.8870 C   0  0  0  0  0  0
   -1.3498   15.4092   14.1425 C   0  0  0  0  0  0
   -1.8985   15.2769   15.4677 C   0  0  0  0  0  0
   -1.3987   16.0684   16.5677 C   0  0  0  0  0  0
    1.3303   18.1083   14.6835 C   0  0  0  0  0  0
    1.5446   18.5935   13.4572 N   0  0  0  0  0  0
    2.1258   18.5043   15.6932 N   0  0  0  0  0  0
   -5.1321   14.2157   17.7575 O   0  0  0  0  0  0
   -5.4851   19.6019   19.1743 O   0  0  0  0  0  0
   -4.2101   12.9398   20.0818 C   0  0  0  0  0  0
   -0.1053   28.1310   15.3296 O   0  0  0  0  0  0
   -2.7418   18.4972   18.1235 H   0  0  0  0  0  0
    0.9698   18.3121   12.7091 H   0  0  0  0  0  0
    1.9790   18.1546   16.6017 H   0  0  0  0  0  0
    2.8549   19.1438   15.5237 H   0  0  0  0  0  0
   -0.6152   28.8976   15.6349 H   0  0  0  0  0  0
  1  2  1  0  0  0
  1  6  2  0  0  0
  2  3  1  0  0  0
  2 11  1  0  0  0
  3  4  2  0  0  0
  4  5  1  0  0  0
  5  6  1  0  0  0
  5 33  1  0  0  0
  7  8  2  0  0  0
  7 12  1  0  0  0
  8  9  1  0  0  0
  8 13  1  0  0  0
  9 10  2  0  0  0
 10 11  1  0  0  0
 11 12  2  0  0  0
 13 14  1  0  0  0
 13 31  2  0  0  0
 14 15  1  0  0  0
 14 34  1  0  0  0
 15 16  1  0  0  0
 15 17  1  0  0  0
 17 18  1  0  0  0
 17 20  1  0  0  0
 18 19  1  0  0  0
 18 30  2  0  0  0
 19 32  1  0  0  0
 20 26  1  0  0  0
 21 22  2  0  0  0
 21 26  1  0  0  0
 22 23  1  0  0  0
 22 27  1  0  0  0
 23 24  2  0  0  0
 24 25  1  0  0  0
 25 26  2  0  0  0
 27 28  2  0  0  0
 27 29  1  0  0  0
 28 35  1  0  0  0
 29 36  1  0  0  0
 29 37  1  0  0  0
 33 38  1  0  0  0
M  END
>  <CHROM.0>
93.70041628,-147.19668408,-85.98101545,67.20164188,119.56188620,-178.69279076
178.99282501,12.18601402,-49.83477178

>  <CHROM.1>
-161.07255223,-12.19304443,5.57995477,-93.43754360,-169.74704241,-71.44228519
-122.34989001,-178.05148486,125.38817668,-156.44477189,-2.14227649,19.58200284
17.05018992,-1.33821191,-0.72648666,3.13780677

>  <FORMUL>
      FXV    C25 H27 N4 O4 1+

>  <HET>
 FXV  A 401      33

>  <HETNAM>
     FXV METHYL-3-(4'-N-OXOPYRIDYLPHENOYL)-3-METHYL-2-(M-AMIDINO
   2 FXV BENZYL)-PROPIONATE

>  <HETSYN>
     FXV FXV673

>  <Name>
FXV.pdb

>  <RI>
0

>  <Rbt.Current_Directory>
/home/malgorzata/Desktop/rDOCK_IFD/Wyniki/8_factor_Xa2/IFD

>  <Rbt.Executable>
rbdock ($Id: //depot/dev/client3/rdock/2013.1/src/exe/rbdock.cxx#4 $)

>  <Rbt.Library>
libRbt.so (2013.1, Build901 2013/11/27)

>  <Rbt.Parameter_File>
/home/malgorzata/Desktop/rDock_2013.1_src/data/scripts/dock.prm

>  <Rbt.Receptor>
cavity.prm

>  <SCORE>
-26.2144

>  <SCORE.INTER>
-19.436

>  <SCORE.INTER.CONST>
1

>  <SCORE.INTER.POLAR>
-2.15386

>  <SCORE.INTER.REPUL>
0

>  <SCORE.INTER.ROT>
9

>  <SCORE.INTER.VDW>
-26.5129

>  <SCORE.INTER.norm>
-0.588969

>  <SCORE.INTRA>
1.64628

>  <SCORE.INTRA.DIHEDRAL>
2.92777

>  <SCORE.INTRA.DIHEDRAL.0>
8.37942

>  <SCORE.INTRA.POLAR>
0

>  <SCORE.INTRA.POLAR.0>
0

>  <SCORE.INTRA.REPUL>
0

>  <SCORE.INTRA.REPUL.0>
0

>  <SCORE.INTRA.VDW>
0.182391

>  <SCORE.INTRA.VDW.0>
-0.0658046

>  <SCORE.INTRA.norm>
0.0498872

>  <SCORE.RESTR>
0

>  <SCORE.RESTR.CAVITY>
0

>  <SCORE.RESTR.norm>
0

>  <SCORE.SYSTEM>
-8.42471

>  <SCORE.SYSTEM.CONST>
0

>  <SCORE.SYSTEM.DIHEDRAL>
3.5851

>  <SCORE.SYSTEM.POLAR>
-3.85609

>  <SCORE.SYSTEM.REPUL>
0.301087

>  <SCORE.SYSTEM.VDW>
1.38801

>  <SCORE.SYSTEM.norm>
-0.255294

>  <SCORE.heavy>
33

>  <SCORE.norm>
-0.794376

$$$$
