REMARK  2 active torsions:
REMARK  status: ('A' for Active; 'I' for Inactive)
REMARK    1  A    between atoms: N5_12  and  C11_25 
REMARK    2  A    between atoms: C8_22  and  C9_23 
ROOT
HETATM    1 BR1  HMD A 400      -3.486  29.011   8.730  1.00 63.13    -0.031 Br
HETATM    2  O1  HMD A 400       1.743  28.535   7.676  1.00 45.50    -0.266 OA
HETATM    3  N1  HMD A 400      -0.831  28.264   8.469  1.00 48.35    -0.345 N 
ATOM      4  H1  HMD A 400      -0.723  28.910   7.687  1.00  0.00     0.167 HD
HETATM    5  N2  HMD A 400       2.343  26.459   8.435  1.00 41.03    -0.355 N 
ATOM      6  H2  HMD A 400       3.236  26.574   7.957  1.00  0.00     0.162 HD
HETATM    7  C1  HMD A 400      -1.951  28.072   9.168  1.00 51.52     0.081 A 
HETATM    8  C2  HMD A 400      -1.767  27.148  10.154  1.00 49.23     0.052 A 
HETATM    9  C3  HMD A 400      -0.416  26.719  10.049  1.00 46.03     0.008 A 
HETATM   10  C4  HMD A 400       0.139  27.465   8.964  1.00 45.99     0.112 A 
HETATM   11  C5  HMD A 400       1.459  27.516   8.320  1.00 42.91     0.269 C 
HETATM   12  C6  HMD A 400       2.161  25.189   9.159  1.00 39.71     0.128 C 
HETATM   13  C7  HMD A 400       1.793  25.375  10.620  1.00 41.24     0.061 C 
HETATM   14  C8  HMD A 400       0.299  25.595  10.837  1.00 44.36    -0.011 C 
ENDROOT
BRANCH  14  15
HETATM   15  C9  HMD A 400      -0.399  24.774  11.729  1.00 44.10     0.125 A 
HETATM   16  N4  HMD A 400      -0.851  25.096  13.018  1.00 45.11    -0.186 N 
HETATM   17  C11 HMD A 400      -1.527  24.048  13.525  1.00 46.60     0.679 A 
ATOM     18  H4  HMD A 400      -0.694  25.984  13.494  1.00  0.00     0.184 HD
HETATM   19  N3  HMD A 400      -1.554  22.985  12.712  1.00 47.18    -0.155 N 
HETATM   20  C10 HMD A 400      -0.877  23.339  11.593  1.00 45.33     0.287 A 
ATOM     21  H3  HMD A 400      -1.996  22.085  12.899  1.00  0.00     0.187 HD
HETATM   22  O2  HMD A 400      -0.692  22.599  10.615  1.00 43.12    -0.265 OA
BRANCH  17  23
HETATM   23  N5  HMD A 400      -2.088  24.102  14.717  1.00 49.07    -0.234 N 
ATOM     24  H52 HMD A 400      -2.676  24.887  14.994  1.00  0.00     0.174 HD
ATOM     25  H51 HMD A 400      -1.984  23.393  15.444  1.00  0.00     0.174 HD
ENDBRANCH  17  23
ENDBRANCH  14  15
TORSDOF 2
