REMARK  2 active torsions:
REMARK  status: ('A' for Active; 'I' for Inactive)
REMARK    1  A    between atoms: N5_12  and  C11_25 
REMARK    2  A    between atoms: C8_22  and  C9_23 
ROOT
HETATM    1 BR1  HMD A 400      -3.429  29.013   8.697  1.00 63.13    -0.031 Br
HETATM    2  O1  HMD A 400       1.687  28.845   7.124  1.00 45.50    -0.266 OA
HETATM    3  N1  HMD A 400      -0.757  28.456   8.218  1.00 48.35    -0.345 N 
ATOM      4  H1  HMD A 400      -0.788  29.022   7.370  1.00  0.00     0.167 HD
HETATM    5  N2  HMD A 400       2.547  26.916   8.009  1.00 41.03    -0.355 N 
ATOM      6  H2  HMD A 400       3.373  27.050   7.426  1.00  0.00     0.162 HD
HETATM    7  C1  HMD A 400      -1.779  28.251   9.051  1.00 51.52     0.081 A 
HETATM    8  C2  HMD A 400      -1.413  27.453  10.095  1.00 49.23     0.052 A 
HETATM    9  C3  HMD A 400      -0.047  27.124   9.884  1.00 46.03     0.008 A 
HETATM   10  C4  HMD A 400       0.326  27.793   8.678  1.00 45.99     0.112 A 
HETATM   11  C5  HMD A 400       1.563  27.881   7.890  1.00 42.91     0.269 C 
HETATM   12  C6  HMD A 400       2.554  25.719   8.867  1.00 39.71     0.128 C 
HETATM   13  C7  HMD A 400       2.322  26.028  10.335  1.00 41.24     0.061 C 
HETATM   14  C8  HMD A 400       0.843  26.150  10.693  1.00 44.36    -0.011 C 
ENDROOT
BRANCH  14  15
HETATM   15  C9  HMD A 400       0.317  25.374  11.732  1.00 44.10     0.125 A 
HETATM   16  N4  HMD A 400      -0.428  25.812  12.837  1.00 45.11    -0.186 N 
HETATM   17  C11 HMD A 400      -0.793  24.748  13.575  1.00 46.60     0.679 A 
ATOM     18  H4  HMD A 400      -0.656  26.784  13.049  1.00  0.00     0.184 HD
HETATM   19  N3  HMD A 400      -0.329  23.585  13.103  1.00 47.18    -0.155 N 
HETATM   20  C10 HMD A 400       0.371  23.877  11.981  1.00 45.33     0.287 A 
ATOM     21  H3  HMD A 400      -0.473  22.660  13.508  1.00  0.00     0.187 HD
HETATM   22  O2  HMD A 400       0.953  23.042  11.272  1.00 43.12    -0.265 OA
BRANCH  17  23
HETATM   23  N5  HMD A 400      -1.534  24.881  14.658  1.00 49.07    -0.234 N 
ATOM     24  H52 HMD A 400      -2.298  25.555  14.701  1.00  0.00     0.174 HD
ATOM     25  H51 HMD A 400      -1.410  24.348  15.519  1.00  0.00     0.174 HD
ENDBRANCH  17  23
ENDBRANCH  14  15
TORSDOF 2
