REMARK  2 active torsions:
REMARK  status: ('A' for Active; 'I' for Inactive)
REMARK    1  A    between atoms: N5_12  and  C11_25 
REMARK    2  A    between atoms: C8_22  and  C9_23 
ROOT
HETATM    1 BR1  HMD A 400      -3.799  29.003   9.226  1.00 63.13    -0.031 Br
HETATM    2  O1  HMD A 400       1.359  28.583   7.849  1.00 45.50    -0.266 OA
HETATM    3  N1  HMD A 400      -1.166  28.269   8.768  1.00 48.35    -0.345 N 
ATOM      4  H1  HMD A 400      -1.100  28.962   8.023  1.00  0.00     0.167 HD
HETATM    5  N2  HMD A 400       1.991  26.464   8.442  1.00 41.03    -0.355 N 
ATOM      6  H2  HMD A 400       2.856  26.606   7.922  1.00  0.00     0.162 HD
HETATM    7  C1  HMD A 400      -2.247  28.036   9.517  1.00 51.52     0.081 A 
HETATM    8  C2  HMD A 400      -2.011  27.052  10.431  1.00 49.23     0.052 A 
HETATM    9  C3  HMD A 400      -0.671  26.627  10.224  1.00 46.03     0.008 A 
HETATM   10  C4  HMD A 400      -0.174  27.438   9.157  1.00 45.99     0.112 A 
HETATM   11  C5  HMD A 400       1.107  27.527   8.443  1.00 42.91     0.269 C 
HETATM   12  C6  HMD A 400       1.843  25.152   9.096  1.00 39.71     0.128 C 
HETATM   13  C7  HMD A 400       1.560  25.247  10.584  1.00 41.24     0.061 C 
HETATM   14  C8  HMD A 400       0.081  25.456  10.898  1.00 44.36    -0.011 C 
ENDROOT
BRANCH  14  15
HETATM   15  C9  HMD A 400      -0.569  24.582  11.777  1.00 44.10     0.125 A 
HETATM   16  N4  HMD A 400      -1.155  24.887  13.014  1.00 45.11    -0.186 N 
HETATM   17  C11 HMD A 400      -1.725  23.778  13.520  1.00 46.60     0.679 A 
ATOM     18  H4  HMD A 400      -1.150  25.805  13.460  1.00  0.00     0.184 HD
HETATM   19  N3  HMD A 400      -1.553  22.692  12.757  1.00 47.18    -0.155 N 
HETATM   20  C10 HMD A 400      -0.846  23.092  11.673  1.00 45.33     0.287 A 
ATOM     21  H3  HMD A 400      -1.888  21.749  12.953  1.00  0.00     0.187 HD
HETATM   22  O2  HMD A 400      -0.493  22.349  10.745  1.00 43.12    -0.265 OA
BRANCH  17  23
HETATM   23  N5  HMD A 400      -2.377  23.800  14.667  1.00 49.07    -0.234 N 
ATOM     24  H52 HMD A 400      -2.240  23.075  15.371  1.00  0.00     0.174 HD
ATOM     25  H51 HMD A 400      -3.054  24.512  14.940  1.00  0.00     0.174 HD
ENDBRANCH  17  23
ENDBRANCH  14  15
TORSDOF 2
