REMARK  2 active torsions:
REMARK  status: ('A' for Active; 'I' for Inactive)
REMARK    1  A    between atoms: N5_12  and  C11_25 
REMARK    2  A    between atoms: C8_22  and  C9_23 
ROOT
HETATM    1 BR1  HMD A 400      -3.588  28.968   8.784  1.00 63.13    -0.031 Br
HETATM    2  O1  HMD A 400       1.485  28.791   7.079  1.00 45.50    -0.266 OA
HETATM    3  N1  HMD A 400      -0.919  28.431   8.267  1.00 48.35    -0.345 N 
ATOM      4  H1  HMD A 400      -0.986  28.936   7.384  1.00  0.00     0.167 HD
HETATM    5  N2  HMD A 400       2.409  26.944   8.069  1.00 41.03    -0.355 N 
ATOM      6  H2  HMD A 400       3.216  27.054   7.455  1.00  0.00     0.162 HD
HETATM    7  C1  HMD A 400      -1.913  28.265   9.142  1.00 51.52     0.081 A 
HETATM    8  C2  HMD A 400      -1.502  27.548  10.227  1.00 49.23     0.052 A 
HETATM    9  C3  HMD A 400      -0.135  27.232  10.001  1.00 46.03     0.008 A 
HETATM   10  C4  HMD A 400       0.190  27.823   8.741  1.00 45.99     0.112 A 
HETATM   11  C5  HMD A 400       1.403  27.880   7.913  1.00 42.91     0.269 C 
HETATM   12  C6  HMD A 400       2.466  25.811   9.008  1.00 39.71     0.128 C 
HETATM   13  C7  HMD A 400       2.268  26.217  10.457  1.00 41.24     0.061 C 
HETATM   14  C8  HMD A 400       0.797  26.334  10.848  1.00 44.36    -0.011 C 
ENDROOT
BRANCH  14  15
HETATM   15  C9  HMD A 400       0.316  25.623  11.953  1.00 44.10     0.125 A 
HETATM   16  N4  HMD A 400      -0.315  26.136  13.096  1.00 45.11    -0.186 N 
HETATM   17  C11 HMD A 400      -0.674  25.117  13.898  1.00 46.60     0.679 A 
ATOM     18  H4  HMD A 400      -0.476  27.125  13.288  1.00  0.00     0.184 HD
HETATM   19  N3  HMD A 400      -0.308  23.916  13.435  1.00 47.18    -0.155 N 
HETATM   20  C10 HMD A 400       0.314  24.134  12.252  1.00 45.33     0.287 A 
ATOM     21  H3  HMD A 400      -0.466  23.014  13.885  1.00  0.00     0.187 HD
HETATM   22  O2  HMD A 400       0.796  23.246  11.532  1.00 43.12    -0.265 OA
BRANCH  17  23
HETATM   23  N5  HMD A 400      -1.319  25.326  15.030  1.00 49.07    -0.234 N 
ATOM     24  H52 HMD A 400      -2.302  25.597  15.041  1.00  0.00     0.174 HD
ATOM     25  H51 HMD A 400      -0.907  25.245  15.960  1.00  0.00     0.174 HD
ENDBRANCH  17  23
ENDBRANCH  14  15
TORSDOF 2
