REMARK  2 active torsions:
REMARK  status: ('A' for Active; 'I' for Inactive)
REMARK    1  A    between atoms: N5_12  and  C11_25 
REMARK    2  A    between atoms: C8_22  and  C9_23 
ROOT
HETATM    1 BR1  HMD A 400      -3.762  28.962   9.188  1.00 63.13    -0.031 Br
HETATM    2  O1  HMD A 400       1.442  28.613   7.975  1.00 45.50    -0.266 OA
HETATM    3  N1  HMD A 400      -1.107  28.263   8.811  1.00 48.35    -0.345 N 
ATOM      4  H1  HMD A 400      -1.025  28.961   8.072  1.00  0.00     0.167 HD
HETATM    5  N2  HMD A 400       2.080  26.497   8.575  1.00 41.03    -0.355 N 
ATOM      6  H2  HMD A 400       2.960  26.653   8.084  1.00  0.00     0.162 HD
HETATM    7  C1  HMD A 400      -2.208  28.013   9.523  1.00 51.52     0.081 A 
HETATM    8  C2  HMD A 400      -1.991  27.025  10.438  1.00 49.23     0.052 A 
HETATM    9  C3  HMD A 400      -0.640  26.618  10.271  1.00 46.03     0.008 A 
HETATM   10  C4  HMD A 400      -0.118  27.442   9.226  1.00 45.99     0.112 A 
HETATM   11  C5  HMD A 400       1.184  27.550   8.554  1.00 42.91     0.269 C 
HETATM   12  C6  HMD A 400       1.927  25.180   9.215  1.00 39.71     0.128 C 
HETATM   13  C7  HMD A 400       1.595  25.262  10.694  1.00 41.24     0.061 C 
HETATM   14  C8  HMD A 400       0.105  25.450  10.962  1.00 44.36    -0.011 C 
ENDROOT
BRANCH  14  15
HETATM   15  C9  HMD A 400      -0.563  24.563  11.813  1.00 44.10     0.125 A 
HETATM   16  N4  HMD A 400      -1.199  24.855  13.029  1.00 45.11    -0.186 N 
HETATM   17  C11 HMD A 400      -1.769  23.734  13.510  1.00 46.60     0.679 A 
ATOM     18  H4  HMD A 400      -1.226  25.771  13.477  1.00  0.00     0.184 HD
HETATM   19  N3  HMD A 400      -1.550  22.654  12.752  1.00 47.18    -0.155 N 
HETATM   20  C10 HMD A 400      -0.811  23.069  11.696  1.00 45.33     0.287 A 
ATOM     21  H3  HMD A 400      -1.876  21.705  12.933  1.00  0.00     0.187 HD
HETATM   22  O2  HMD A 400      -0.411  22.335  10.779  1.00 43.12    -0.265 OA
BRANCH  17  23
HETATM   23  N5  HMD A 400      -2.463  23.742  14.632  1.00 49.07    -0.234 N 
ATOM     24  H52 HMD A 400      -2.454  22.945  15.269  1.00  0.00     0.174 HD
ATOM     25  H51 HMD A 400      -3.052  24.511  14.949  1.00  0.00     0.174 HD
ENDBRANCH  17  23
ENDBRANCH  14  15
TORSDOF 2
