REMARK  2 active torsions:
REMARK  status: ('A' for Active; 'I' for Inactive)
REMARK    1  A    between atoms: N5_12  and  C11_25 
REMARK    2  A    between atoms: C8_22  and  C9_23 
ROOT
HETATM    1 BR1  HMD A 400       3.265  25.643   8.302  1.00 63.13    -0.031 Br
HETATM    2  O1  HMD A 400      -1.021  28.656   7.194  1.00 45.50    -0.266 OA
HETATM    3  N1  HMD A 400       0.867  27.032   8.251  1.00 48.35    -0.345 N 
ATOM      4  H1  HMD A 400       1.234  27.642   7.521  1.00  0.00     0.167 HD
HETATM    5  N2  HMD A 400      -2.305  28.632   9.091  1.00 41.03    -0.355 N 
ATOM      6  H2  HMD A 400      -2.872  29.375   8.683  1.00  0.00     0.162 HD
HETATM    7  C1  HMD A 400       1.528  26.020   8.819  1.00 51.52     0.081 A 
HETATM    8  C2  HMD A 400       0.760  25.393   9.756  1.00 49.23     0.052 A 
HETATM    9  C3  HMD A 400      -0.482  26.084   9.780  1.00 46.03     0.008 A 
HETATM   10  C4  HMD A 400      -0.364  27.116   8.798  1.00 45.99     0.112 A 
HETATM   11  C5  HMD A 400      -1.252  28.182   8.314  1.00 42.91     0.269 C 
HETATM   12  C6  HMD A 400      -2.712  28.176  10.431  1.00 39.71     0.128 C 
HETATM   13  C7  HMD A 400      -2.956  26.680  10.511  1.00 41.24     0.061 C 
HETATM   14  C8  HMD A 400      -1.679  25.878  10.739  1.00 44.36    -0.011 C 
ENDROOT
BRANCH  14  15
HETATM   15  C9  HMD A 400      -1.606  24.983  11.812  1.00 44.10     0.125 A 
HETATM   16  N4  HMD A 400      -2.136  25.143  13.101  1.00 45.11    -0.186 N 
HETATM   17  C11 HMD A 400      -1.897  24.030  13.819  1.00 46.60     0.679 A 
ATOM     18  H4  HMD A 400      -2.626  25.971  13.440  1.00  0.00     0.184 HD
HETATM   19  N3  HMD A 400      -1.198  23.104  13.154  1.00 47.18    -0.155 N 
HETATM   20  C10 HMD A 400      -0.968  23.609  11.919  1.00 45.33     0.287 A 
ATOM     21  H3  HMD A 400      -0.896  22.195  13.508  1.00  0.00     0.187 HD
HETATM   22  O2  HMD A 400      -0.338  23.026  11.022  1.00 43.12    -0.265 OA
BRANCH  17  23
HETATM   23  N5  HMD A 400      -2.323  23.908  15.062  1.00 49.07    -0.234 N 
ATOM     24  H52 HMD A 400      -3.055  24.511  15.436  1.00  0.00     0.174 HD
ATOM     25  H51 HMD A 400      -1.969  23.229  15.736  1.00  0.00     0.174 HD
ENDBRANCH  17  23
ENDBRANCH  14  15
TORSDOF 2
