REMARK  2 active torsions:
REMARK  status: ('A' for Active; 'I' for Inactive)
REMARK    1  A    between atoms: N5_12  and  C11_25 
REMARK    2  A    between atoms: C8_22  and  C9_23 
ROOT
HETATM    1 BR1  HMD A 400      -0.627  28.244   7.921  1.00 63.13    -0.031 Br
HETATM    2  O1  HMD A 400       4.046  25.712   8.573  1.00 45.50    -0.266 OA
HETATM    3  N1  HMD A 400       1.486  26.588   8.607  1.00 48.35    -0.345 N 
ATOM      4  H1  HMD A 400       2.000  26.898   7.782  1.00  0.00     0.167 HD
HETATM    5  N2  HMD A 400       3.584  23.877   9.862  1.00 41.03    -0.355 N 
ATOM      6  H2  HMD A 400       4.521  23.531   9.657  1.00  0.00     0.162 HD
HETATM    7  C1  HMD A 400       0.271  27.008   8.966  1.00 51.52     0.081 A 
HETATM    8  C2  HMD A 400      -0.136  26.409  10.122  1.00 49.23     0.052 A 
HETATM    9  C3  HMD A 400       0.913  25.531  10.507  1.00 46.03     0.008 A 
HETATM   10  C4  HMD A 400       1.926  25.687   9.511  1.00 45.99     0.112 A 
HETATM   11  C5  HMD A 400       3.250  25.090   9.289  1.00 42.91     0.269 C 
HETATM   12  C6  HMD A 400       2.760  23.019  10.732  1.00 39.71     0.128 C 
HETATM   13  C7  HMD A 400       2.221  23.740  11.954  1.00 41.24     0.061 C 
HETATM   14  C8  HMD A 400       0.936  24.513  11.672  1.00 44.36    -0.011 C 
ENDROOT
BRANCH  14  15
HETATM   15  C9  HMD A 400      -0.197  24.282  12.460  1.00 44.10     0.125 A 
HETATM   16  N4  HMD A 400      -0.894  23.076  12.629  1.00 45.11    -0.186 N 
HETATM   17  C11 HMD A 400      -1.893  23.262  13.512  1.00 46.60     0.679 A 
ATOM     18  H4  HMD A 400      -0.677  22.198  12.158  1.00  0.00     0.184 HD
HETATM   19  N3  HMD A 400      -1.990  24.522  13.953  1.00 47.18    -0.155 N 
HETATM   20  C10 HMD A 400      -0.995  25.217  13.352  1.00 45.33     0.287 A 
ATOM     21  H3  HMD A 400      -2.678  24.886  14.612  1.00  0.00     0.187 HD
HETATM   22  O2  HMD A 400      -0.778  26.427  13.518  1.00 43.12    -0.265 OA
BRANCH  17  23
HETATM   23  N5  HMD A 400      -2.684  22.271  13.875  1.00 49.07    -0.234 N 
ATOM     24  H52 HMD A 400      -2.945  21.531  13.223  1.00  0.00     0.174 HD
ATOM     25  H51 HMD A 400      -3.096  22.163  14.802  1.00  0.00     0.174 HD
ENDBRANCH  17  23
ENDBRANCH  14  15
TORSDOF 2
