REMARK  2 active torsions:
REMARK  status: ('A' for Active; 'I' for Inactive)
REMARK    1  A    between atoms: N5_12  and  C11_25 
REMARK    2  A    between atoms: C8_22  and  C9_23 
ROOT
HETATM    1 BR1  HMD A 400      -3.342  28.637   9.583  1.00 63.13    -0.031 Br
HETATM    2  O1  HMD A 400       1.571  28.989   7.482  1.00 45.50    -0.266 OA
HETATM    3  N1  HMD A 400      -0.759  28.264   8.653  1.00 48.35    -0.345 N 
ATOM      4  H1  HMD A 400      -0.856  29.080   8.048  1.00  0.00     0.167 HD
HETATM    5  N2  HMD A 400       2.442  26.873   7.581  1.00 41.03    -0.355 N 
ATOM      6  H2  HMD A 400       3.207  27.190   6.987  1.00  0.00     0.162 HD
HETATM    7  C1  HMD A 400      -1.696  27.797   9.481  1.00 51.52     0.081 A 
HETATM    8  C2  HMD A 400      -1.254  26.697  10.156  1.00 49.23     0.052 A 
HETATM    9  C3  HMD A 400       0.069  26.453   9.698  1.00 46.03     0.008 A 
HETATM   10  C4  HMD A 400       0.339  27.484   8.745  1.00 45.99     0.112 A 
HETATM   11  C5  HMD A 400       1.490  27.825   7.897  1.00 42.91     0.269 C 
HETATM   12  C6  HMD A 400       2.492  25.459   7.991  1.00 39.71     0.128 C 
HETATM   13  C7  HMD A 400       2.426  25.264   9.495  1.00 41.24     0.061 C 
HETATM   14  C8  HMD A 400       0.999  25.264  10.036  1.00 44.36    -0.011 C 
ENDROOT
BRANCH  14  15
HETATM   15  C9  HMD A 400       0.554  24.189  10.813  1.00 44.10     0.125 A 
HETATM   16  N4  HMD A 400       0.352  22.862  10.407  1.00 45.11    -0.186 N 
HETATM   17  C11 HMD A 400      -0.027  22.127  11.468  1.00 46.60     0.679 A 
ATOM     18  H4  HMD A 400       0.474  22.509   9.457  1.00  0.00     0.184 HD
HETATM   19  N3  HMD A 400      -0.154  22.838  12.594  1.00 47.18    -0.155 N 
HETATM   20  C10 HMD A 400       0.174  24.115  12.281  1.00 45.33     0.287 A 
ATOM     21  H3  HMD A 400      -0.441  22.489  13.509  1.00  0.00     0.187 HD
HETATM   22  O2  HMD A 400       0.166  25.063  13.081  1.00 43.12    -0.265 OA
BRANCH  17  23
HETATM   23  N5  HMD A 400      -0.251  20.831  11.365  1.00 49.07    -0.234 N 
ATOM     24  H52 HMD A 400       0.515  20.164  11.273  1.00  0.00     0.174 HD
ATOM     25  H51 HMD A 400      -1.174  20.396  11.360  1.00  0.00     0.174 HD
ENDBRANCH  17  23
ENDBRANCH  14  15
TORSDOF 2
