REMARK  9 active torsions:
REMARK  status: ('A' for Active; 'I' for Inactive)
REMARK    1  A    between atoms: C9_2  and  C8_3 
REMARK    2  A    between atoms: C8_3  and  C11_4 
REMARK    3  A    between atoms: C7_10  and  C1_11 
REMARK    4  A    between atoms: C7_10  and  C17_19 
REMARK    5  A    between atoms: C4_14  and  O4_15 
REMARK    6  A    between atoms: C20_22  and  O20_23 
REMARK    7  A    between atoms: O20_23  and  C23_24 
REMARK    8  A    between atoms: C23_24  and  C24_25 
REMARK    9  A    between atoms: C24_25  and  N24_26 
ROOT
HETATM    1  C8  OHT A 600      67.632  33.173  72.110  1.00 25.22    -0.036 C 
HETATM    2  C7  OHT A 600      68.257  34.231  72.705  1.00 24.63    -0.009 C 
ENDROOT
BRANCH   2   3
HETATM    3  C1  OHT A 600      68.759  35.441  71.956  1.00 24.14    -0.024 A 
HETATM    4  C2  OHT A 600      67.906  36.204  71.099  1.00 26.17     0.015 A 
HETATM    5  C3  OHT A 600      68.412  37.292  70.373  1.00 26.36     0.037 A 
HETATM    6  C4  OHT A 600      69.773  37.628  70.497  1.00 29.58     0.065 A 
HETATM    7  C5  OHT A 600      70.625  36.882  71.343  1.00 27.04     0.037 A 
HETATM    8  C6  OHT A 600      70.105  35.807  72.052  1.00 25.11     0.015 A 
BRANCH   6   9
HETATM    9  O4  OHT A 600      70.245  38.677  69.766  1.00 28.95    -0.361 OA
ATOM     10  H4  OHT A 600      70.820  38.490  69.033  1.00  0.00     0.217 HD
ENDBRANCH   6   9
ENDBRANCH   2   3
BRANCH   2  11
HETATM   11  C17 OHT A 600      68.517  34.284  74.147  1.00 26.54    -0.024 A 
HETATM   12  C18 OHT A 600      67.624  34.887  75.029  1.00 26.76     0.015 A 
HETATM   13  C19 OHT A 600      67.837  34.924  76.379  1.00 28.12     0.037 A 
HETATM   14  C20 OHT A 600      68.980  34.341  76.904  1.00 28.11     0.068 A 
HETATM   15  C21 OHT A 600      69.905  33.726  76.043  1.00 26.98     0.037 A 
HETATM   16  C22 OHT A 600      69.668  33.703  74.697  1.00 27.89     0.015 A 
BRANCH  14  17
HETATM   17  O20 OHT A 600      69.251  34.301  78.241  1.00 31.97    -0.349 OA
BRANCH  17  18
HETATM   18  C23 OHT A 600      68.764  35.331  79.096  1.00 40.10     0.206 C 
BRANCH  18  19
HETATM   19  C24 OHT A 600      69.946  35.830  79.882  1.00 45.21     0.297 C 
BRANCH  19  20
HETATM   20  N24 OHT A 600      70.064  35.238  81.187  1.00 50.11     0.082 N 
HETATM   21  C25 OHT A 600      70.336  36.244  82.215  1.00 52.05     0.309 C 
HETATM   22  C26 OHT A 600      68.809  34.559  81.533  1.00 52.76     0.309 C 
ENDBRANCH  19  20
ENDBRANCH  18  19
ENDBRANCH  17  18
ENDBRANCH  14  17
ENDBRANCH   2  11
BRANCH   1  23
HETATM   23  C9  OHT A 600      67.651  32.949  70.613  1.00 23.31     0.036 C 
HETATM   24  C10 OHT A 600      66.405  33.462  69.944  1.00 26.22     0.010 C 
ENDBRANCH   1  23
BRANCH   1  25
HETATM   25  C11 OHT A 600      66.867  32.132  72.863  1.00 27.85    -0.029 A 
HETATM   26  C16 OHT A 600      67.536  31.209  73.694  1.00 28.59     0.012 A 
HETATM   27  C15 OHT A 600      66.818  30.269  74.433  1.00 30.60     0.001 A 
HETATM   28  C14 OHT A 600      65.439  30.217  74.369  1.00 30.44     0.000 A 
HETATM   29  C13 OHT A 600      64.771  31.108  73.563  1.00 31.30     0.001 A 
HETATM   30  C12 OHT A 600      65.481  32.056  72.818  1.00 28.04     0.012 A 
ENDBRANCH   1  25
TORSDOF 9
