REMARK  9 active torsions:
REMARK  status: ('A' for Active; 'I' for Inactive)
REMARK    1  A    between atoms: C9_2  and  C8_3 
REMARK    2  A    between atoms: C8_3  and  C11_4 
REMARK    3  A    between atoms: C7_10  and  C1_11 
REMARK    4  A    between atoms: C7_10  and  C17_19 
REMARK    5  A    between atoms: C4_14  and  O4_15 
REMARK    6  A    between atoms: C20_22  and  O20_23 
REMARK    7  A    between atoms: O20_23  and  C23_24 
REMARK    8  A    between atoms: C23_24  and  C24_25 
REMARK    9  A    between atoms: C24_25  and  N24_26 
ROOT
HETATM    1  C8  OHT A 600      67.637  33.124  72.137  1.00 25.22    -0.036 C 
HETATM    2  C7  OHT A 600      68.246  34.217  72.683  1.00 24.63    -0.009 C 
ENDROOT
BRANCH   2   3
HETATM    3  C1  OHT A 600      68.719  35.405  71.881  1.00 24.14    -0.024 A 
HETATM    4  C2  OHT A 600      70.077  35.849  71.923  1.00 26.17     0.015 A 
HETATM    5  C3  OHT A 600      70.478  36.987  71.208  1.00 26.36     0.037 A 
HETATM    6  C4  OHT A 600      69.527  37.691  70.446  1.00 29.58     0.065 A 
HETATM    7  C5  OHT A 600      68.182  37.259  70.395  1.00 27.04     0.037 A 
HETATM    8  C6  OHT A 600      67.805  36.130  71.111  1.00 25.11     0.015 A 
BRANCH   6   9
HETATM    9  O4  OHT A 600      69.937  38.805  69.776  1.00 28.95    -0.361 OA
ATOM     10  H4  OHT A 600      70.861  39.024  69.795  1.00  0.00     0.217 HD
ENDBRANCH   6   9
ENDBRANCH   2   3
BRANCH   2  11
HETATM   11  C17 OHT A 600      68.515  34.333  74.120  1.00 26.54    -0.024 A 
HETATM   12  C18 OHT A 600      67.636  34.990  74.977  1.00 26.76     0.015 A 
HETATM   13  C19 OHT A 600      67.858  35.087  76.322  1.00 28.12     0.037 A 
HETATM   14  C20 OHT A 600      68.994  34.513  76.868  1.00 28.11     0.068 A 
HETATM   15  C21 OHT A 600      69.906  33.845  76.032  1.00 26.98     0.037 A 
HETATM   16  C22 OHT A 600      69.661  33.762  74.690  1.00 27.89     0.015 A 
BRANCH  14  17
HETATM   17  O20 OHT A 600      69.273  34.532  78.204  1.00 31.97    -0.349 OA
BRANCH  17  18
HETATM   18  C23 OHT A 600      70.027  35.607  78.758  1.00 40.10     0.206 C 
BRANCH  18  19
HETATM   19  C24 OHT A 600      69.138  36.820  78.714  1.00 45.21     0.297 C 
BRANCH  19  20
HETATM   20  N24 OHT A 600      68.329  36.986  79.891  1.00 50.11     0.082 N 
HETATM   21  C25 OHT A 600      68.991  36.451  81.082  1.00 52.05     0.309 C 
HETATM   22  C26 OHT A 600      68.072  38.413  80.113  1.00 52.76     0.309 C 
ENDBRANCH  19  20
ENDBRANCH  18  19
ENDBRANCH  17  18
ENDBRANCH  14  17
ENDBRANCH   2  11
BRANCH   1  23
HETATM   23  C9  OHT A 600      67.651  32.839  70.649  1.00 23.31     0.036 C 
HETATM   24  C10 OHT A 600      66.403  33.328  69.965  1.00 26.22     0.010 C 
ENDBRANCH   1  23
BRANCH   1  25
HETATM   25  C11 OHT A 600      66.899  32.099  72.937  1.00 27.85    -0.029 A 
HETATM   26  C16 OHT A 600      67.599  31.159  73.722  1.00 28.59     0.012 A 
HETATM   27  C15 OHT A 600      66.907  30.235  74.506  1.00 30.60     0.001 A 
HETATM   28  C14 OHT A 600      65.526  30.215  74.531  1.00 30.44     0.000 A 
HETATM   29  C13 OHT A 600      64.829  31.124  73.771  1.00 31.30     0.001 A 
HETATM   30  C12 OHT A 600      65.511  32.057  72.982  1.00 28.04     0.012 A 
ENDBRANCH   1  25
TORSDOF 9
