REMARK  9 active torsions:
REMARK  status: ('A' for Active; 'I' for Inactive)
REMARK    1  A    between atoms: C9_2  and  C8_3 
REMARK    2  A    between atoms: C8_3  and  C11_4 
REMARK    3  A    between atoms: C7_10  and  C1_11 
REMARK    4  A    between atoms: C7_10  and  C17_19 
REMARK    5  A    between atoms: C4_14  and  O4_15 
REMARK    6  A    between atoms: C20_22  and  O20_23 
REMARK    7  A    between atoms: O20_23  and  C23_24 
REMARK    8  A    between atoms: C23_24  and  C24_25 
REMARK    9  A    between atoms: C24_25  and  N24_26 
ROOT
HETATM    1  C8  OHT A 600      67.354  33.506  71.896  1.00 25.22    -0.036 C 
HETATM    2  C7  OHT A 600      68.025  34.560  72.447  1.00 24.63    -0.009 C 
ENDROOT
BRANCH   2   3
HETATM    3  C1  OHT A 600      68.460  35.778  71.669  1.00 24.14    -0.024 A 
HETATM    4  C2  OHT A 600      67.579  36.449  70.765  1.00 26.17     0.015 A 
HETATM    5  C3  OHT A 600      68.026  37.547  70.016  1.00 26.36     0.037 A 
HETATM    6  C4  OHT A 600      69.356  37.984  70.163  1.00 29.58     0.065 A 
HETATM    7  C5  OHT A 600      70.235  37.329  71.055  1.00 27.04     0.037 A 
HETATM    8  C6  OHT A 600      69.773  36.243  71.788  1.00 25.11     0.015 A 
BRANCH   6   9
HETATM    9  O4  OHT A 600      69.772  39.040  69.409  1.00 28.95    -0.361 OA
ATOM     10  H4  OHT A 600      70.692  39.089  69.175  1.00  0.00     0.217 HD
ENDBRANCH   6   9
ENDBRANCH   2   3
BRANCH   2  11
HETATM   11  C17 OHT A 600      68.404  34.600  73.863  1.00 26.54    -0.024 A 
HETATM   12  C18 OHT A 600      69.524  33.923  74.338  1.00 26.76     0.015 A 
HETATM   13  C19 OHT A 600      69.907  33.969  75.649  1.00 28.12     0.037 A 
HETATM   14  C20 OHT A 600      69.164  34.715  76.550  1.00 28.11     0.068 A 
HETATM   15  C21 OHT A 600      68.025  35.410  76.106  1.00 26.98     0.037 A 
HETATM   16  C22 OHT A 600      67.664  35.347  74.790  1.00 27.89     0.015 A 
BRANCH  14  17
HETATM   17  O20 OHT A 600      69.498  34.845  77.868  1.00 31.97    -0.349 OA
BRANCH  17  18
HETATM   18  C23 OHT A 600      69.521  33.696  78.711  1.00 40.10     0.206 C 
BRANCH  18  19
HETATM   19  C24 OHT A 600      69.229  34.182  80.104  1.00 45.21     0.297 C 
BRANCH  19  20
HETATM   20  N24 OHT A 600      69.587  35.557  80.324  1.00 50.11     0.082 N 
HETATM   21  C25 OHT A 600      68.405  36.413  80.429  1.00 52.05     0.309 C 
HETATM   22  C26 OHT A 600      70.347  35.672  81.574  1.00 52.76     0.309 C 
ENDBRANCH  19  20
ENDBRANCH  18  19
ENDBRANCH  17  18
ENDBRANCH  14  17
ENDBRANCH   2  11
BRANCH   1  23
HETATM   23  C9  OHT A 600      67.249  33.295  70.400  1.00 23.31     0.036 C 
HETATM   24  C10 OHT A 600      66.409  32.097  70.052  1.00 26.22     0.010 C 
ENDBRANCH   1  23
BRANCH   1  25
HETATM   25  C11 OHT A 600      66.658  32.455  72.700  1.00 27.85    -0.029 A 
HETATM   26  C16 OHT A 600      67.313  31.250  73.031  1.00 28.59     0.012 A 
HETATM   27  C15 OHT A 600      66.678  30.292  73.822  1.00 30.60     0.001 A 
HETATM   28  C14 OHT A 600      65.398  30.496  74.297  1.00 30.44     0.000 A 
HETATM   29  C13 OHT A 600      64.744  31.664  73.983  1.00 31.30     0.001 A 
HETATM   30  C12 OHT A 600      65.370  32.633  73.192  1.00 28.04     0.012 A 
ENDBRANCH   1  25
TORSDOF 9
