REMARK  9 active torsions:
REMARK  status: ('A' for Active; 'I' for Inactive)
REMARK    1  A    between atoms: C9_2  and  C8_3 
REMARK    2  A    between atoms: C8_3  and  C11_4 
REMARK    3  A    between atoms: C7_10  and  C1_11 
REMARK    4  A    between atoms: C7_10  and  C17_19 
REMARK    5  A    between atoms: C4_14  and  O4_15 
REMARK    6  A    between atoms: C20_22  and  O20_23 
REMARK    7  A    between atoms: O20_23  and  C23_24 
REMARK    8  A    between atoms: C23_24  and  C24_25 
REMARK    9  A    between atoms: C24_25  and  N24_26 
ROOT
HETATM    1  C8  OHT A 600      67.587  33.323  72.114  1.00 25.22    -0.036 C 
HETATM    2  C7  OHT A 600      68.269  34.312  72.763  1.00 24.63    -0.009 C 
ENDROOT
BRANCH   2   3
HETATM    3  C1  OHT A 600      68.801  35.551  72.085  1.00 24.14    -0.024 A 
HETATM    4  C2  OHT A 600      67.959  36.400  71.301  1.00 26.17     0.015 A 
HETATM    5  C3  OHT A 600      68.490  37.517  70.639  1.00 26.36     0.037 A 
HETATM    6  C4  OHT A 600      69.865  37.795  70.754  1.00 29.58     0.065 A 
HETATM    7  C5  OHT A 600      70.705  36.964  71.529  1.00 27.04     0.037 A 
HETATM    8  C6  OHT A 600      70.161  35.862  72.176  1.00 25.11     0.015 A 
BRANCH   6   9
HETATM    9  O4  OHT A 600      70.360  38.874  70.085  1.00 28.95    -0.361 OA
ATOM     10  H4  OHT A 600      70.999  38.721  69.399  1.00  0.00     0.217 HD
ENDBRANCH   6   9
ENDBRANCH   2   3
BRANCH   2  11
HETATM   11  C17 OHT A 600      68.568  34.253  74.197  1.00 26.54    -0.024 A 
HETATM   12  C18 OHT A 600      67.776  34.910  75.136  1.00 26.76     0.015 A 
HETATM   13  C19 OHT A 600      68.024  34.846  76.478  1.00 28.12     0.037 A 
HETATM   14  C20 OHT A 600      69.098  34.102  76.938  1.00 28.11     0.068 A 
HETATM   15  C21 OHT A 600      69.921  33.427  76.019  1.00 26.98     0.037 A 
HETATM   16  C22 OHT A 600      69.651  33.507  74.682  1.00 27.89     0.015 A 
BRANCH  14  17
HETATM   17  O20 OHT A 600      69.394  33.956  78.263  1.00 31.97    -0.349 OA
BRANCH  17  18
HETATM   18  C23 OHT A 600      68.817  34.837  79.221  1.00 40.10     0.206 C 
BRANCH  18  19
HETATM   19  C24 OHT A 600      69.877  35.847  79.567  1.00 45.21     0.297 C 
BRANCH  19  20
HETATM   20  N24 OHT A 600      70.302  35.792  80.939  1.00 50.11     0.082 N 
HETATM   21  C25 OHT A 600      69.451  36.614  81.802  1.00 52.05     0.309 C 
HETATM   22  C26 OHT A 600      70.235  34.407  81.418  1.00 52.76     0.309 C 
ENDBRANCH  19  20
ENDBRANCH  18  19
ENDBRANCH  17  18
ENDBRANCH  14  17
ENDBRANCH   2  11
BRANCH   1  23
HETATM   23  C9  OHT A 600      67.560  33.204  70.604  1.00 23.31     0.036 C 
HETATM   24  C10 OHT A 600      66.298  33.767  70.012  1.00 26.22     0.010 C 
ENDBRANCH   1  23
BRANCH   1  25
HETATM   25  C11 OHT A 600      66.802  32.261  72.813  1.00 27.85    -0.029 A 
HETATM   26  C16 OHT A 600      65.392  32.319  72.856  1.00 28.59     0.012 A 
HETATM   27  C15 OHT A 600      64.658  31.302  73.466  1.00 30.60     0.001 A 
HETATM   28  C14 OHT A 600      65.289  30.218  74.045  1.00 30.44     0.000 A 
HETATM   29  C13 OHT A 600      66.662  30.146  74.014  1.00 31.30     0.001 A 
HETATM   30  C12 OHT A 600      67.409  31.159  73.403  1.00 28.04     0.012 A 
ENDBRANCH   1  25
TORSDOF 9
