REMARK  9 active torsions:
REMARK  status: ('A' for Active; 'I' for Inactive)
REMARK    1  A    between atoms: C9_2  and  C8_3 
REMARK    2  A    between atoms: C8_3  and  C11_4 
REMARK    3  A    between atoms: C7_10  and  C1_11 
REMARK    4  A    between atoms: C7_10  and  C17_19 
REMARK    5  A    between atoms: C4_14  and  O4_15 
REMARK    6  A    between atoms: C20_22  and  O20_23 
REMARK    7  A    between atoms: O20_23  and  C23_24 
REMARK    8  A    between atoms: C23_24  and  C24_25 
REMARK    9  A    between atoms: C24_25  and  N24_26 
ROOT
HETATM    1  C8  OHT A 600      67.365  33.419  71.842  1.00 25.22    -0.036 C 
HETATM    2  C7  OHT A 600      68.034  34.459  72.419  1.00 24.63    -0.009 C 
ENDROOT
BRANCH   2   3
HETATM    3  C1  OHT A 600      68.485  35.688  71.668  1.00 24.14    -0.024 A 
HETATM    4  C2  OHT A 600      67.627  36.367  70.749  1.00 26.17     0.015 A 
HETATM    5  C3  OHT A 600      68.089  37.476  70.025  1.00 26.36     0.037 A 
HETATM    6  C4  OHT A 600      69.412  37.917  70.214  1.00 29.58     0.065 A 
HETATM    7  C5  OHT A 600      70.269  37.256  71.123  1.00 27.04     0.037 A 
HETATM    8  C6  OHT A 600      69.792  36.158  71.829  1.00 25.11     0.015 A 
BRANCH   6   9
HETATM    9  O4  OHT A 600      69.844  38.984  69.485  1.00 28.95    -0.361 OA
ATOM     10  H4  OHT A 600      70.775  39.064  69.315  1.00  0.00     0.217 HD
ENDBRANCH   6   9
ENDBRANCH   2   3
BRANCH   2  11
HETATM   11  C17 OHT A 600      68.398  34.472  73.839  1.00 26.54    -0.024 A 
HETATM   12  C18 OHT A 600      67.624  35.140  74.785  1.00 26.76     0.015 A 
HETATM   13  C19 OHT A 600      67.933  35.142  76.116  1.00 28.12     0.037 A 
HETATM   14  C20 OHT A 600      69.053  34.456  76.557  1.00 28.11     0.068 A 
HETATM   15  C21 OHT A 600      69.859  33.773  75.630  1.00 26.98     0.037 A 
HETATM   16  C22 OHT A 600      69.528  33.787  74.304  1.00 27.89     0.015 A 
BRANCH  14  17
HETATM   17  O20 OHT A 600      69.412  34.377  77.872  1.00 31.97    -0.349 OA
BRANCH  17  18
HETATM   18  C23 OHT A 600      68.936  35.348  78.798  1.00 40.10     0.206 C 
BRANCH  18  19
HETATM   19  C24 OHT A 600      69.947  35.411  79.911  1.00 45.21     0.297 C 
BRANCH  19  20
HETATM   20  N24 OHT A 600      69.389  35.804  81.176  1.00 50.11     0.082 N 
HETATM   21  C25 OHT A 600      70.430  36.207  82.123  1.00 52.05     0.309 C 
HETATM   22  C26 OHT A 600      68.483  36.941  80.982  1.00 52.76     0.309 C 
ENDBRANCH  19  20
ENDBRANCH  18  19
ENDBRANCH  17  18
ENDBRANCH  14  17
ENDBRANCH   2  11
BRANCH   1  23
HETATM   23  C9  OHT A 600      67.276  33.236  70.341  1.00 23.31     0.036 C 
HETATM   24  C10 OHT A 600      66.244  32.213  69.953  1.00 26.22     0.010 C 
ENDBRANCH   1  23
BRANCH   1  25
HETATM   25  C11 OHT A 600      66.653  32.358  72.618  1.00 27.85    -0.029 A 
HETATM   26  C16 OHT A 600      67.324  31.179  73.007  1.00 28.59     0.012 A 
HETATM   27  C15 OHT A 600      66.672  30.212  73.773  1.00 30.60     0.001 A 
HETATM   28  C14 OHT A 600      65.360  30.382  74.167  1.00 30.44     0.000 A 
HETATM   29  C13 OHT A 600      64.691  31.524  73.797  1.00 31.30     0.001 A 
HETATM   30  C12 OHT A 600      65.334  32.502  73.029  1.00 28.04     0.012 A 
ENDBRANCH   1  25
TORSDOF 9
