REMARK  9 active torsions:
REMARK  status: ('A' for Active; 'I' for Inactive)
REMARK    1  A    between atoms: C9_2  and  C8_3 
REMARK    2  A    between atoms: C8_3  and  C11_4 
REMARK    3  A    between atoms: C7_10  and  C1_11 
REMARK    4  A    between atoms: C7_10  and  C17_19 
REMARK    5  A    between atoms: C4_14  and  O4_15 
REMARK    6  A    between atoms: C20_22  and  O20_23 
REMARK    7  A    between atoms: O20_23  and  C23_24 
REMARK    8  A    between atoms: C23_24  and  C24_25 
REMARK    9  A    between atoms: C24_25  and  N24_26 
ROOT
HETATM    1  C8  OHT A 600      67.663  33.190  72.116  1.00 25.22    -0.036 C 
HETATM    2  C7  OHT A 600      68.329  34.212  72.730  1.00 24.63    -0.009 C 
ENDROOT
BRANCH   2   3
HETATM    3  C1  OHT A 600      68.849  35.430  72.007  1.00 24.14    -0.024 A 
HETATM    4  C2  OHT A 600      70.206  35.862  72.140  1.00 26.17     0.015 A 
HETATM    5  C3  OHT A 600      70.650  37.028  71.499  1.00 26.36     0.037 A 
HETATM    6  C4  OHT A 600      69.744  37.771  70.719  1.00 29.58     0.065 A 
HETATM    7  C5  OHT A 600      68.401  37.352  70.578  1.00 27.04     0.037 A 
HETATM    8  C6  OHT A 600      67.981  36.195  71.223  1.00 25.11     0.015 A 
BRANCH   6   9
HETATM    9  O4  OHT A 600      70.194  38.911  70.122  1.00 28.95    -0.361 OA
ATOM     10  H4  OHT A 600      70.845  39.429  70.580  1.00  0.00     0.217 HD
ENDBRANCH   6   9
ENDBRANCH   2   3
BRANCH   2  11
HETATM   11  C17 OHT A 600      68.617  34.213  74.167  1.00 26.54    -0.024 A 
HETATM   12  C18 OHT A 600      69.576  33.367  74.721  1.00 26.76     0.015 A 
HETATM   13  C19 OHT A 600      69.876  33.372  76.054  1.00 28.12     0.037 A 
HETATM   14  C20 OHT A 600      69.212  34.247  76.899  1.00 28.11     0.068 A 
HETATM   15  C21 OHT A 600      68.236  35.113  76.376  1.00 26.98     0.037 A 
HETATM   16  C22 OHT A 600      67.955  35.089  75.038  1.00 27.89     0.015 A 
BRANCH  14  17
HETATM   17  O20 OHT A 600      69.477  34.342  78.235  1.00 31.97    -0.349 OA
BRANCH  17  18
HETATM   18  C23 OHT A 600      69.925  35.577  78.784  1.00 40.10     0.206 C 
BRANCH  18  19
HETATM   19  C24 OHT A 600      68.754  36.165  79.525  1.00 45.21     0.297 C 
BRANCH  19  20
HETATM   20  N24 OHT A 600      68.910  36.152  80.954  1.00 50.11     0.082 N 
HETATM   21  C25 OHT A 600      70.279  35.812  81.346  1.00 52.05     0.309 C 
HETATM   22  C26 OHT A 600      68.598  37.481  81.494  1.00 52.76     0.309 C 
ENDBRANCH  19  20
ENDBRANCH  18  19
ENDBRANCH  17  18
ENDBRANCH  14  17
ENDBRANCH   2  11
BRANCH   1  23
HETATM   23  C9  OHT A 600      67.648  33.011  70.612  1.00 23.31     0.036 C 
HETATM   24  C10 OHT A 600      66.394  33.557  69.987  1.00 26.22     0.010 C 
ENDBRANCH   1  23
BRANCH   1  25
HETATM   25  C11 OHT A 600      66.885  32.146  72.851  1.00 27.85    -0.029 A 
HETATM   26  C16 OHT A 600      67.547  31.130  73.572  1.00 28.59     0.012 A 
HETATM   27  C15 OHT A 600      66.820  30.186  74.298  1.00 30.60     0.001 A 
HETATM   28  C14 OHT A 600      65.440  30.221  74.327  1.00 30.44     0.000 A 
HETATM   29  C13 OHT A 600      64.778  31.203  73.630  1.00 31.30     0.001 A 
HETATM   30  C12 OHT A 600      65.497  32.157  72.899  1.00 28.04     0.012 A 
ENDBRANCH   1  25
TORSDOF 9
