REMARK  5 active torsions:
REMARK  status: ('A' for Active; 'I' for Inactive)
REMARK    1  A    between atoms: C1_1  and  C2_5 
REMARK    2  A    between atoms: C3_6  and  O1_7 
REMARK    3  A    between atoms: C8_12  and  C13_17 
REMARK    4  A    between atoms: N1_19  and  C15_21 
REMARK    5  A    between atoms: C15_21  and  C16_22 
ROOT
HETATM    1  C2  TOL A 320      24.200  26.869  72.793  1.00 39.49     0.092 A 
HETATM    2  C3  TOL A 320      23.117  26.117  72.268  1.00 37.18     0.084 A 
HETATM    3  C5  TOL A 320      22.884  24.810  72.750  1.00 39.03     0.038 A 
HETATM    4  C6  TOL A 320      23.707  24.252  73.735  1.00 40.20     0.016 A 
HETATM    5  C7  TOL A 320      24.781  24.997  74.260  1.00 39.45    -0.012 A 
HETATM    6  C8  TOL A 320      25.605  24.422  75.257  1.00 33.89     0.013 A 
HETATM    7  C9  TOL A 320      26.677  25.164  75.779  1.00 32.90     0.015 A 
HETATM    8  C10 TOL A 320      26.930  26.459  75.322  1.00 29.56     0.002 A 
HETATM    9  C11 TOL A 320      26.112  27.024  74.335  1.00 35.57     0.013 A 
HETATM   10  C12 TOL A 320      25.032  26.301  73.795  1.00 37.52    -0.007 A 
ENDROOT
BRANCH   6  11
HETATM   11  C13 TOL A 320      25.405  23.030  75.808  1.00 34.37     0.110 C 
HETATM   12  S1  TOL A 320      25.936  21.678  74.898  1.00 39.07    -0.060 SA
HETATM   13  N1  TOL A 320      24.832  22.870  77.002  1.00 34.17    -0.366 N 
HETATM   14  C14 TOL A 320      24.487  24.040  77.803  1.00 23.18     0.151 C 
BRANCH  13  15
HETATM   15  C15 TOL A 320      24.553  21.545  77.546  1.00 23.15     0.236 C 
BRANCH  15  16
HETATM   16  C16 TOL A 320      23.283  20.935  76.930  1.00 20.92     0.191 C 
HETATM   17  O2  TOL A 320      23.225  19.784  76.586  1.00 16.93    -0.647 OA
HETATM   18  O3  TOL A 320      22.245  21.771  76.809  1.00 20.68    -0.647 OA
ENDBRANCH  15  16
ENDBRANCH  13  15
ENDBRANCH   6  11
BRANCH   1  19
HETATM   19  C1  TOL A 320      24.547  28.305  72.345  1.00 34.72     0.420 C 
HETATM   20  F1  TOL A 320      24.061  28.573  71.106  1.00 37.53    -0.166 F 
HETATM   21  F2  TOL A 320      25.889  28.515  72.296  1.00 34.37    -0.166 F 
HETATM   22  F3  TOL A 320      24.027  29.218  73.208  1.00 47.22    -0.166 F 
ENDBRANCH   1  19
BRANCH   2  23
HETATM   23  O1  TOL A 320      22.341  26.648  71.341  1.00 37.59    -0.355 OA
HETATM   24  C4  TOL A 320      21.430  27.602  71.862  1.00 32.52     0.210 C 
ENDBRANCH   2  23
TORSDOF 5
