REMARK  5 active torsions:
REMARK  status: ('A' for Active; 'I' for Inactive)
REMARK    1  A    between atoms: C1_1  and  C2_5 
REMARK    2  A    between atoms: C3_6  and  O1_7 
REMARK    3  A    between atoms: C8_12  and  C13_17 
REMARK    4  A    between atoms: N1_19  and  C15_21 
REMARK    5  A    between atoms: C15_21  and  C16_22 
ROOT
HETATM    1  C2  TOL A 320      24.182  26.909  72.744  1.00 39.49     0.092 A 
HETATM    2  C3  TOL A 320      23.090  26.177  72.210  1.00 37.18     0.084 A 
HETATM    3  C5  TOL A 320      22.841  24.867  72.674  1.00 39.03     0.038 A 
HETATM    4  C6  TOL A 320      23.657  24.286  73.650  1.00 40.20     0.016 A 
HETATM    5  C7  TOL A 320      24.741  25.009  74.185  1.00 39.45    -0.012 A 
HETATM    6  C8  TOL A 320      25.558  24.411  75.172  1.00 33.89     0.013 A 
HETATM    7  C9  TOL A 320      26.639  25.133  75.704  1.00 32.90     0.015 A 
HETATM    8  C10 TOL A 320      26.907  26.431  75.265  1.00 29.56     0.002 A 
HETATM    9  C11 TOL A 320      26.096  27.019  74.287  1.00 35.57     0.013 A 
HETATM   10  C12 TOL A 320      25.007  26.317  73.737  1.00 37.52    -0.007 A 
ENDROOT
BRANCH   6  11
HETATM   11  C13 TOL A 320      25.342  23.014  75.704  1.00 34.37     0.110 C 
HETATM   12  S1  TOL A 320      25.742  21.667  74.723  1.00 39.07    -0.060 SA
HETATM   13  N1  TOL A 320      24.857  22.846  76.936  1.00 34.17    -0.366 N 
HETATM   14  C14 TOL A 320      24.626  24.006  77.789  1.00 23.18     0.151 C 
BRANCH  13  15
HETATM   15  C15 TOL A 320      24.564  21.519  77.469  1.00 23.15     0.236 C 
BRANCH  15  16
HETATM   16  C16 TOL A 320      23.278  20.935  76.860  1.00 20.92     0.191 C 
HETATM   17  O2  TOL A 320      23.206  19.796  76.481  1.00 16.93    -0.647 OA
HETATM   18  O3  TOL A 320      22.243  21.779  76.789  1.00 20.68    -0.647 OA
ENDBRANCH  15  16
ENDBRANCH  13  15
ENDBRANCH   6  11
BRANCH   1  19
HETATM   19  C1  TOL A 320      24.546  28.347  72.316  1.00 34.72     0.420 C 
HETATM   20  F1  TOL A 320      25.889  28.537  72.293  1.00 37.53    -0.166 F 
HETATM   21  F2  TOL A 320      24.030  29.278  73.162  1.00 34.37    -0.166 F 
HETATM   22  F3  TOL A 320      24.061  28.617  71.075  1.00 47.22    -0.166 F 
ENDBRANCH   1  19
BRANCH   2  23
HETATM   23  O1  TOL A 320      22.320  26.731  71.290  1.00 37.59    -0.355 OA
HETATM   24  C4  TOL A 320      21.387  27.651  71.831  1.00 32.52     0.210 C 
ENDBRANCH   2  23
TORSDOF 5
