REMARK  5 active torsions:
REMARK  status: ('A' for Active; 'I' for Inactive)
REMARK    1  A    between atoms: C1_1  and  C2_5 
REMARK    2  A    between atoms: C3_6  and  O1_7 
REMARK    3  A    between atoms: C8_12  and  C13_17 
REMARK    4  A    between atoms: N1_19  and  C15_21 
REMARK    5  A    between atoms: C15_21  and  C16_22 
ROOT
HETATM    1  C2  TOL A 320      24.132  26.880  72.987  1.00 39.49     0.092 A 
HETATM    2  C3  TOL A 320      23.044  26.117  72.488  1.00 37.18     0.084 A 
HETATM    3  C5  TOL A 320      22.894  24.774  72.899  1.00 39.03     0.038 A 
HETATM    4  C6  TOL A 320      23.803  24.192  73.789  1.00 40.20     0.016 A 
HETATM    5  C7  TOL A 320      24.883  24.946  74.289  1.00 39.45    -0.012 A 
HETATM    6  C8  TOL A 320      25.794  24.346  75.189  1.00 33.89     0.013 A 
HETATM    7  C9  TOL A 320      26.871  25.099  75.685  1.00 32.90     0.015 A 
HETATM    8  C10 TOL A 320      27.042  26.429  75.297  1.00 29.56     0.002 A 
HETATM    9  C11 TOL A 320      26.138  27.019  74.405  1.00 35.57     0.013 A 
HETATM   10  C12 TOL A 320      25.051  26.287  73.892  1.00 37.52    -0.007 A 
ENDROOT
BRANCH   6  11
HETATM   11  C13 TOL A 320      25.685  22.915  75.661  1.00 34.37     0.110 C 
HETATM   12  S1  TOL A 320      26.559  21.689  74.844  1.00 39.07    -0.060 SA
HETATM   13  N1  TOL A 320      24.922  22.627  76.717  1.00 34.17    -0.366 N 
HETATM   14  C14 TOL A 320      24.275  23.703  77.459  1.00 23.18     0.151 C 
BRANCH  13  15
HETATM   15  C15 TOL A 320      24.729  21.253  77.169  1.00 23.15     0.236 C 
BRANCH  15  16
HETATM   16  C16 TOL A 320      23.331  20.727  76.800  1.00 20.92     0.191 C 
HETATM   17  O2  TOL A 320      22.355  21.429  76.821  1.00 16.93    -0.647 OA
HETATM   18  O3  TOL A 320      23.278  19.437  76.447  1.00 20.68    -0.647 OA
ENDBRANCH  15  16
ENDBRANCH  13  15
ENDBRANCH   6  11
BRANCH   1  19
HETATM   19  C1  TOL A 320      24.392  28.354  72.610  1.00 34.72     0.420 C 
HETATM   20  F1  TOL A 320      25.694  28.565  72.291  1.00 37.53    -0.166 F 
HETATM   21  F2  TOL A 320      24.093  29.203  73.629  1.00 34.37    -0.166 F 
HETATM   22  F3  TOL A 320      23.632  28.720  71.543  1.00 47.22    -0.166 F 
ENDBRANCH   1  19
BRANCH   2  23
HETATM   23  O1  TOL A 320      22.186  26.671  71.650  1.00 37.59    -0.355 OA
HETATM   24  C4  TOL A 320      22.613  26.606  70.299  1.00 32.52     0.210 C 
ENDBRANCH   2  23
TORSDOF 5
