REMARK  5 active torsions:
REMARK  status: ('A' for Active; 'I' for Inactive)
REMARK    1  A    between atoms: C1_1  and  C2_5 
REMARK    2  A    between atoms: C3_6  and  O1_7 
REMARK    3  A    between atoms: C8_12  and  C13_17 
REMARK    4  A    between atoms: N1_19  and  C15_21 
REMARK    5  A    between atoms: C15_21  and  C16_22 
ROOT
HETATM    1  C2  TOL A 320      25.109  25.844  74.105  1.00 39.49     0.092 A 
HETATM    2  C3  TOL A 320      24.430  24.600  74.185  1.00 37.18     0.084 A 
HETATM    3  C5  TOL A 320      23.264  24.397  73.414  1.00 39.03     0.038 A 
HETATM    4  C6  TOL A 320      22.774  25.406  72.577  1.00 40.20     0.016 A 
HETATM    5  C7  TOL A 320      23.447  26.641  72.494  1.00 39.45    -0.012 A 
HETATM    6  C8  TOL A 320      22.942  27.652  71.643  1.00 33.89     0.013 A 
HETATM    7  C9  TOL A 320      23.612  28.883  71.561  1.00 32.90     0.015 A 
HETATM    8  C10 TOL A 320      24.769  29.110  72.310  1.00 29.56     0.002 A 
HETATM    9  C11 TOL A 320      25.264  28.107  73.152  1.00 35.57     0.013 A 
HETATM   10  C12 TOL A 320      24.611  26.864  73.253  1.00 37.52    -0.007 A 
ENDROOT
BRANCH   6  11
HETATM   11  C13 TOL A 320      21.700  27.493  70.798  1.00 34.37     0.110 C 
HETATM   12  S1  TOL A 320      21.803  26.684  69.291  1.00 39.07    -0.060 SA
HETATM   13  N1  TOL A 320      20.536  27.971  71.242  1.00 34.17    -0.366 N 
HETATM   14  C14 TOL A 320      20.455  28.560  72.574  1.00 23.18     0.151 C 
BRANCH  13  15
HETATM   15  C15 TOL A 320      19.323  27.905  70.433  1.00 23.15     0.236 C 
BRANCH  15  16
HETATM   16  C16 TOL A 320      18.358  26.822  70.946  1.00 20.92     0.191 C 
HETATM   17  O2  TOL A 320      17.189  27.038  71.130  1.00 16.93    -0.647 OA
HETATM   18  O3  TOL A 320      18.908  25.622  71.166  1.00 20.68    -0.647 OA
ENDBRANCH  15  16
ENDBRANCH  13  15
ENDBRANCH   6  11
BRANCH   1  19
HETATM   19  C1  TOL A 320      26.392  26.175  74.898  1.00 34.72     0.420 C 
HETATM   20  F1  TOL A 320      27.142  27.113  74.265  1.00 37.53    -0.166 F 
HETATM   21  F2  TOL A 320      27.185  25.084  75.066  1.00 34.37    -0.166 F 
HETATM   22  F3  TOL A 320      26.086  26.646  76.136  1.00 47.22    -0.166 F 
ENDBRANCH   1  19
BRANCH   2  23
HETATM   23  O1  TOL A 320      24.897  23.649  74.974  1.00 37.59    -0.355 OA
HETATM   24  C4  TOL A 320      24.275  23.633  76.248  1.00 32.52     0.210 C 
ENDBRANCH   2  23
TORSDOF 5
