REMARK  5 active torsions:
REMARK  status: ('A' for Active; 'I' for Inactive)
REMARK    1  A    between atoms: C1_1  and  C2_5 
REMARK    2  A    between atoms: C3_6  and  O1_7 
REMARK    3  A    between atoms: C8_12  and  C13_17 
REMARK    4  A    between atoms: N1_19  and  C15_21 
REMARK    5  A    between atoms: C15_21  and  C16_22 
ROOT
HETATM    1  C2  TOL A 320      18.634  28.625  69.860  1.00 39.49     0.092 A 
HETATM    2  C3  TOL A 320      17.884  28.885  71.037  1.00 37.18     0.084 A 
HETATM    3  C5  TOL A 320      18.529  28.839  72.292  1.00 39.03     0.038 A 
HETATM    4  C6  TOL A 320      19.893  28.540  72.387  1.00 40.20     0.016 A 
HETATM    5  C7  TOL A 320      20.641  28.284  71.222  1.00 39.45    -0.012 A 
HETATM    6  C8  TOL A 320      22.019  27.984  71.331  1.00 33.89     0.013 A 
HETATM    7  C9  TOL A 320      22.764  27.728  70.168  1.00 32.90     0.015 A 
HETATM    8  C10 TOL A 320      22.153  27.769  68.913  1.00 29.56     0.002 A 
HETATM    9  C11 TOL A 320      20.788  28.065  68.810  1.00 35.57     0.013 A 
HETATM   10  C12 TOL A 320      20.019  28.325  69.959  1.00 37.52    -0.007 A 
ENDROOT
BRANCH   6  11
HETATM   11  C13 TOL A 320      22.760  27.919  72.646  1.00 34.37     0.110 C 
HETATM   12  S1  TOL A 320      23.019  29.357  73.540  1.00 39.07    -0.060 SA
HETATM   13  N1  TOL A 320      23.191  26.741  73.101  1.00 34.17    -0.366 N 
HETATM   14  C14 TOL A 320      22.864  25.519  72.373  1.00 23.18     0.151 C 
BRANCH  13  15
HETATM   15  C15 TOL A 320      23.972  26.634  74.329  1.00 23.15     0.236 C 
BRANCH  15  16
HETATM   16  C16 TOL A 320      24.481  25.200  74.553  1.00 20.92     0.191 C 
HETATM   17  O2  TOL A 320      23.763  24.316  74.940  1.00 16.93    -0.647 OA
HETATM   18  O3  TOL A 320      25.776  25.001  74.280  1.00 20.68    -0.647 OA
ENDBRANCH  15  16
ENDBRANCH  13  15
ENDBRANCH   6  11
BRANCH   1  19
HETATM   19  C1  TOL A 320      18.037  28.651  68.436  1.00 34.72     0.420 C 
HETATM   20  F1  TOL A 320      18.770  29.430  67.602  1.00 37.53    -0.166 F 
HETATM   21  F2  TOL A 320      16.769  29.141  68.423  1.00 34.37    -0.166 F 
HETATM   22  F3  TOL A 320      17.990  27.398  67.911  1.00 47.22    -0.166 F 
ENDBRANCH   1  19
BRANCH   2  23
HETATM   23  O1  TOL A 320      16.598  29.169  70.943  1.00 37.59    -0.355 OA
HETATM   24  C4  TOL A 320      15.787  28.016  70.785  1.00 32.52     0.210 C 
ENDBRANCH   2  23
TORSDOF 5
