REMARK  5 active torsions:
REMARK  status: ('A' for Active; 'I' for Inactive)
REMARK    1  A    between atoms: C1_1  and  C2_5 
REMARK    2  A    between atoms: C3_6  and  O1_7 
REMARK    3  A    between atoms: C8_12  and  C13_17 
REMARK    4  A    between atoms: N1_19  and  C15_21 
REMARK    5  A    between atoms: C15_21  and  C16_22 
ROOT
HETATM    1  C2  TOL A 320      24.455  21.305  76.529  1.00 39.49     0.092 A 
HETATM    2  C3  TOL A 320      24.725  20.785  75.236  1.00 37.18     0.084 A 
HETATM    3  C5  TOL A 320      25.091  21.670  74.197  1.00 39.03     0.038 A 
HETATM    4  C6  TOL A 320      25.189  23.046  74.429  1.00 40.20     0.016 A 
HETATM    5  C7  TOL A 320      24.924  23.565  75.712  1.00 39.45    -0.012 A 
HETATM    6  C8  TOL A 320      25.028  24.958  75.934  1.00 33.89     0.013 A 
HETATM    7  C9  TOL A 320      24.763  25.475  77.213  1.00 32.90     0.015 A 
HETATM    8  C10 TOL A 320      24.401  24.623  78.259  1.00 29.56     0.002 A 
HETATM    9  C11 TOL A 320      24.299  23.245  78.034  1.00 35.57     0.013 A 
HETATM   10  C12 TOL A 320      24.559  22.702  76.762  1.00 37.52    -0.007 A 
ENDROOT
BRANCH   6  11
HETATM   11  C13 TOL A 320      25.413  25.951  74.863  1.00 34.37     0.110 C 
HETATM   12  S1  TOL A 320      26.954  26.697  74.918  1.00 39.07    -0.060 SA
HETATM   13  N1  TOL A 320      24.554  26.223  73.879  1.00 34.17    -0.366 N 
HETATM   14  C14 TOL A 320      23.292  25.496  73.795  1.00 23.18     0.151 C 
BRANCH  13  15
HETATM   15  C15 TOL A 320      24.849  27.226  72.860  1.00 23.15     0.236 C 
BRANCH  15  16
HETATM   16  C16 TOL A 320      23.989  28.488  73.042  1.00 20.92     0.191 C 
HETATM   17  O2  TOL A 320      23.053  28.525  73.797  1.00 16.93    -0.647 OA
HETATM   18  O3  TOL A 320      24.357  29.544  72.308  1.00 20.68    -0.647 OA
ENDBRANCH  15  16
ENDBRANCH  13  15
ENDBRANCH   6  11
BRANCH   1  19
HETATM   19  C1  TOL A 320      24.051  20.434  77.738  1.00 34.72     0.420 C 
HETATM   20  F1  TOL A 320      25.041  20.374  78.663  1.00 37.53    -0.166 F 
HETATM   21  F2  TOL A 320      23.772  19.154  77.375  1.00 34.37    -0.166 F 
HETATM   22  F3  TOL A 320      22.940  20.933  78.341  1.00 47.22    -0.166 F 
ENDBRANCH   1  19
BRANCH   2  23
HETATM   23  O1  TOL A 320      24.634  19.485  75.021  1.00 37.59    -0.355 OA
HETATM   24  C4  TOL A 320      24.026  19.171  73.779  1.00 32.52     0.210 C 
ENDBRANCH   2  23
TORSDOF 5
