REMARK  5 active torsions:
REMARK  status: ('A' for Active; 'I' for Inactive)
REMARK    1  A    between atoms: C1_1  and  C2_5 
REMARK    2  A    between atoms: C3_6  and  O1_7 
REMARK    3  A    between atoms: C8_12  and  C13_17 
REMARK    4  A    between atoms: N1_19  and  C15_21 
REMARK    5  A    between atoms: C15_21  and  C16_22 
ROOT
HETATM    1  C2  TOL A 320      24.731  21.470  76.450  1.00 39.49     0.092 A 
HETATM    2  C3  TOL A 320      25.123  20.964  75.184  1.00 37.18     0.084 A 
HETATM    3  C5  TOL A 320      25.528  21.863  74.174  1.00 39.03     0.038 A 
HETATM    4  C6  TOL A 320      25.545  23.243  74.408  1.00 40.20     0.016 A 
HETATM    5  C7  TOL A 320      25.159  23.750  75.664  1.00 39.45    -0.012 A 
HETATM    6  C8  TOL A 320      25.182  25.146  75.888  1.00 33.89     0.013 A 
HETATM    7  C9  TOL A 320      24.795  25.651  77.140  1.00 32.90     0.015 A 
HETATM    8  C10 TOL A 320      24.392  24.784  78.158  1.00 29.56     0.002 A 
HETATM    9  C11 TOL A 320      24.370  23.402  77.931  1.00 35.57     0.013 A 
HETATM   10  C12 TOL A 320      24.752  22.871  76.686  1.00 37.52    -0.007 A 
ENDROOT
BRANCH   6  11
HETATM   11  C13 TOL A 320      25.602  26.155  74.845  1.00 34.37     0.110 C 
HETATM   12  S1  TOL A 320      27.173  26.837  74.917  1.00 39.07    -0.060 SA
HETATM   13  N1  TOL A 320      24.752  26.492  73.874  1.00 34.17    -0.366 N 
HETATM   14  C14 TOL A 320      23.462  25.818  73.774  1.00 23.18     0.151 C 
BRANCH  13  15
HETATM   15  C15 TOL A 320      25.085  27.513  72.886  1.00 23.15     0.236 C 
BRANCH  15  16
HETATM   16  C16 TOL A 320      24.009  28.610  72.821  1.00 20.92     0.191 C 
HETATM   17  O2  TOL A 320      22.983  28.542  73.446  1.00 16.93    -0.647 OA
HETATM   18  O3  TOL A 320      24.295  29.648  72.027  1.00 20.68    -0.647 OA
ENDBRANCH  15  16
ENDBRANCH  13  15
ENDBRANCH   6  11
BRANCH   1  19
HETATM   19  C1  TOL A 320      24.274  20.582  77.628  1.00 34.72     0.420 C 
HETATM   20  F1  TOL A 320      23.053  20.953  78.089  1.00 37.53    -0.166 F 
HETATM   21  F2  TOL A 320      25.131  20.650  78.681  1.00 34.37    -0.166 F 
HETATM   22  F3  TOL A 320      24.203  19.279  77.249  1.00 47.22    -0.166 F 
ENDBRANCH   1  19
BRANCH   2  23
HETATM   23  O1  TOL A 320      25.108  19.661  74.968  1.00 37.59    -0.355 OA
HETATM   24  C4  TOL A 320      24.318  19.295  73.849  1.00 32.52     0.210 C 
ENDBRANCH   2  23
TORSDOF 5
