S58.pdb
 OpenBabel12152011463D

 37 39  0  0  0  0  0  0  0  0999 V2000
   27.5570   21.7340   16.8580 C   0  0  0  0  0  0  0  0  0  0  0  0
   26.3220   22.0290   16.3660 C   0  0  0  0  0  0  0  0  0  0  0  0
   27.3340   21.1490   18.2120 C   0  0  0  0  0  0  0  0  0  0  0  0
   28.3530   20.7370   19.2320 C   0  0  0  0  0  0  0  0  0  0  0  0
   24.0280   21.4680   17.1130 C   0  0  0  0  0  0  0  0  0  0  0  0
   23.4160   20.4550   17.8620 C   0  0  0  0  0  0  0  0  0  0  0  0
   22.0460   20.2640   17.7610 C   0  0  0  0  0  0  0  0  0  0  0  0
   21.2860   21.0960   16.9070 C   0  0  0  0  0  0  0  0  0  0  0  0
   21.9030   22.1120   16.1580 C   0  0  0  0  0  0  0  0  0  0  0  0
   23.2840   22.2960   16.2610 C   0  0  0  0  0  0  0  0  0  0  0  0
   26.0700   22.6920   15.0500 C   0  0  0  0  0  0  0  0  0  0  0  0
   26.3580   24.0720   14.8960 C   0  0  0  0  0  0  0  0  0  0  0  0
   26.2700   24.6760   13.6280 C   0  0  0  0  0  0  0  0  0  0  0  0
   25.9040   23.9150   12.5210 C   0  0  0  0  0  0  0  0  0  0  0  0
   25.5890   22.5600   12.6710 C   0  0  0  0  0  0  0  0  0  0  0  0
   25.6730   21.9420   13.9410 C   0  0  0  0  0  0  0  0  0  0  0  0
   25.3740   21.6570   17.2920 N   0  0  0  0  0  0  0  0  0  0  0  0
   26.0470   21.1010   18.4240 N   0  0  0  0  0  0  0  0  0  0  0  0
   19.1480   19.1560   17.0210 N   0  0  0  0  0  0  0  0  0  0  0  0
   19.0440   21.3160   15.4960 O   0  0  0  0  0  0  0  0  0  0  0  0
   18.8590   21.6450   17.8080 O   0  0  0  0  0  0  0  0  0  0  0  0
   25.9990   24.6630   10.8360 Br  0  0  0  0  0  0  0  0  0  0  0  0
   28.7090   21.8160   19.9730 F   0  0  0  0  0  0  0  0  0  0  0  0
   29.4120   20.1820   18.6220 F   0  0  0  0  0  0  0  0  0  0  0  0
   27.7870   19.8300   20.0360 F   0  0  0  0  0  0  0  0  0  0  0  0
   19.4820   20.8620   16.7780 S   0  0  0  0  0  0  0  0  0  0  0  0
   19.6290   18.4880   16.4940 H   0  0  0  0  0  0  0  0  0  0  0  0
   18.4830   18.8730   17.6850 H   0  0  0  0  0  0  0  0  0  0  0  0
   28.4638   21.8847   16.3890 H   0  0  0  0  0  0  0  0  0  0  0  0
   23.9801   19.8553   18.4842 H   0  0  0  0  0  0  0  0  0  0  0  0
   21.5841   19.5191   18.3059 H   0  0  0  0  0  0  0  0  0  0  0  0
   21.3416   22.7164   15.5379 H   0  0  0  0  0  0  0  0  0  0  0  0
   23.7526   23.0354   15.7144 H   0  0  0  0  0  0  0  0  0  0  0  0
   26.6329   24.6349   15.7161 H   0  0  0  0  0  0  0  0  0  0  0  0
   26.4764   25.6812   13.5188 H   0  0  0  0  0  0  0  0  0  0  0  0
   25.2937   22.0081   11.8505 H   0  0  0  0  0  0  0  0  0  0  0  0
   25.4420   20.9418   14.0472 H   0  0  0  0  0  0  0  0  0  0  0  0
  1  3  1  0  0  0  0
  1 29  1  0  0  0  0
  2  1  2  0  0  0  0
  2 17  1  0  0  0  0
  3 18  2  0  0  0  0
  3  4  1  0  0  0  0
  4 23  1  0  0  0  0
  4 25  1  0  0  0  0
  5 17  1  0  0  0  0
  5  6  2  0  0  0  0
  6 30  1  0  0  0  0
  7  6  1  0  0  0  0
  7 31  1  0  0  0  0
  8  7  2  0  0  0  0
  9 10  2  0  0  0  0
  9  8  1  0  0  0  0
  9 32  1  0  0  0  0
 10  5  1  0  0  0  0
 10 33  1  0  0  0  0
 11  2  1  0  0  0  0
 12 11  1  0  0  0  0
 12 34  1  0  0  0  0
 13 12  2  0  0  0  0
 13 35  1  0  0  0  0
 14 15  2  0  0  0  0
 14 13  1  0  0  0  0
 15 16  1  0  0  0  0
 15 36  1  0  0  0  0
 16 11  2  0  0  0  0
 16 37  1  0  0  0  0
 17 18  1  0  0  0  0
 19 28  1  0  0  0  0
 20 26  2  0  0  0  0
 22 14  1  0  0  0  0
 24  4  1  0  0  0  0
 26  8  1  0  0  0  0
 26 19  1  0  0  0  0
 26 21  2  0  0  0  0
 27 19  1  0  0  0  0
M  END
>  <HET>
 S58  A 701      28

>  <HETNAM>
     S58 1-PHENYLSULFONAMIDE-3-TRIFLUOROMETHYL-5-PARABROMOPHENYL
   2 S58 PYRAZOLE

>  <FORMUL>
      S58    C16 H11 Br1 F3 N3 O2 S1

$$$$
