OHT.pdb
  rDOCK(R)          3D
libRbt.so/2013.1/901 2013/11/27
 30 32  0  0  0  0  0  0  0  0999 V2000
   66.4018   33.1080   82.4121 C   0  0  0  0  0  0
   67.4009   33.0580   81.2889 C   0  0  0  0  0  0
   68.1864   34.3470   81.1634 C   0  0  0  0  0  0
   68.6407   34.9025   82.4747 C   0  0  0  0  0  0
   68.7241   36.2967   82.6754 C   0  0  0  0  0  0
   69.1012   36.8138   83.9152 C   0  0  0  0  0  0
   69.4042   35.9782   84.9722 C   0  0  0  0  0  0
   69.3295   34.6173   84.7939 C   0  0  0  0  0  0
   68.9506   34.0864   83.5558 C   0  0  0  0  0  0
   68.4482   34.9363   79.9597 C   0  0  0  0  0  0
   69.1431   34.2389   78.8160 C   0  0  0  0  0  0
   68.6829   32.9846   78.3069 C   0  0  0  0  0  0
   69.3781   32.3329   77.2781 C   0  0  0  0  0  0
   70.5387   32.9281   76.7485 C   0  0  0  0  0  0
   71.2082   32.2658   75.7633 O   0  0  0  0  0  0
   71.0012   34.1693   77.2419 C   0  0  0  0  0  0
   70.2988   34.7980   78.2623 C   0  0  0  0  0  0
   68.0879   36.3271   79.6682 C   0  0  0  0  0  0
   69.0536   37.2836   79.3641 C   0  0  0  0  0  0
   68.7348   38.5784   79.0655 C   0  0  0  0  0  0
   67.4053   38.9685   79.0584 C   0  0  0  0  0  0
   66.9982   40.2313   78.7356 O   0  0  0  0  0  0
   66.5373   40.5140   77.4178 C   0  0  0  0  0  0
   67.7223   41.0390   76.6533 C   0  0  0  0  0  0
   67.4014   41.4846   75.3250 N   0  0  0  0  0  0
   68.3023   42.5482   74.8788 C   0  0  0  0  0  0
   67.5215   40.3617   74.3880 C   0  0  0  0  0  0
   66.4035   38.0307   79.3634 C   0  0  0  0  0  0
   66.7493   36.7419   79.6588 C   0  0  0  0  0  0
   72.1231   32.0867   75.8573 H   0  0  0  0  0  0
  1  2  1  0  0  0
  2  3  1  0  0  0
  3  4  1  0  0  0
  3 10  1  0  0  0
  4  5  2  0  0  0
  4  9  1  0  0  0
  5  6  1  0  0  0
  6  7  2  0  0  0
  7  8  1  0  0  0
  8  9  2  0  0  0
 10 11  1  0  0  0
 10 18  1  0  0  0
 11 12  2  0  0  0
 11 17  1  0  0  0
 12 13  1  0  0  0
 13 14  2  0  0  0
 14 15  1  0  0  0
 14 16  1  0  0  0
 15 30  1  0  0  0
 16 17  2  0  0  0
 18 19  2  0  0  0
 18 29  1  0  0  0
 19 20  1  0  0  0
 20 21  2  0  0  0
 21 22  1  0  0  0
 21 28  1  0  0  0
 22 23  1  0  0  0
 23 24  1  0  0  0
 24 25  1  0  0  0
 25 26  1  0  0  0
 25 27  1  0  0  0
 28 29  2  0  0  0
M  END
>  <CHROM.0>
9.09957917,-59.09702687,25.20114003,-35.27451556

>  <CHROM.1>
43.29164474,-146.24444508,-55.87681118,53.48250400,118.24735153,-126.16295065
97.76486561,-94.57217341,-174.92735241,151.07052052,68.46066994,36.40625590
79.32731762,1.15112184,-1.22192211,2.04799151

>  <FORMUL>
      OHT    C26 H29 N1 O2

>  <HET>
 OHT  A 600      29

>  <HETNAM>
     OHT 4-HYDROXYTAMOXIFEN

>  <Name>
OHT.pdb

>  <RI>
0

>  <Rbt.Current_Directory>
/home/malgorzata/Desktop/rDOCK_IFD/Wyniki/5b_estrogen_receptor

>  <Rbt.Executable>
rbdock ($Id: //depot/dev/client3/rdock/2013.1/src/exe/rbdock.cxx#4 $)

>  <Rbt.Library>
libRbt.so (2013.1, Build901 2013/11/27)

>  <Rbt.Parameter_File>
/home/malgorzata/Desktop/rDock_2013.1_src/data/scripts/soft_docking.prm

>  <Rbt.Receptor>
cavity.prm

>  <SCORE>
-71.5564

>  <SCORE.INTER>
-13.7801

>  <SCORE.INTER.CONST>
1

>  <SCORE.INTER.POLAR>
-1.41186

>  <SCORE.INTER.REPUL>
0.0319146

>  <SCORE.INTER.ROT>
9

>  <SCORE.INTER.VDW>
-23.5393

>  <SCORE.INTER.norm>
-0.475175

>  <SCORE.INTRA>
1.43523

>  <SCORE.INTRA.DIHEDRAL>
6.71298

>  <SCORE.INTRA.DIHEDRAL.0>
14.7815

>  <SCORE.INTRA.POLAR>
0

>  <SCORE.INTRA.POLAR.0>
0

>  <SCORE.INTRA.REPUL>
0

>  <SCORE.INTRA.REPUL.0>
0

>  <SCORE.INTRA.VDW>
0.0926361

>  <SCORE.INTRA.VDW.0>
-0.0652974

>  <SCORE.INTRA.norm>
0.0494908

>  <SCORE.RESTR>
1.21181

>  <SCORE.RESTR.CAVITY>
1.21181

>  <SCORE.RESTR.norm>
0.0417865

>  <SCORE.SYSTEM>
-60.4234

>  <SCORE.SYSTEM.CONST>
0

>  <SCORE.SYSTEM.DIHEDRAL>
2.51632

>  <SCORE.SYSTEM.POLAR>
-0.276052

>  <SCORE.SYSTEM.REPUL>
0.0739845

>  <SCORE.SYSTEM.VDW>
-61.1129

>  <SCORE.SYSTEM.norm>
-2.08356

>  <SCORE.heavy>
29

>  <SCORE.norm>
-2.46746

$$$$
OHT.pdb
  rDOCK(R)          3D
libRbt.so/2013.1/901 2013/11/27
 30 32  0  0  0  0  0  0  0  0999 V2000
   70.8303   35.1521   70.8152 C   0  0  0  0  0  0
   70.3625   35.5469   72.1891 C   0  0  0  0  0  0
   68.8609   35.7350   72.2508 C   0  0  0  0  0  0
   68.3237   35.8188   73.6433 C   0  0  0  0  0  0
   67.3843   36.8116   73.9936 C   0  0  0  0  0  0
   66.8473   36.8578   75.2806 C   0  0  0  0  0  0
   67.2220   35.9392   76.2412 C   0  0  0  0  0  0
   68.1372   34.9660   75.9176 C   0  0  0  0  0  0
   68.6815   34.9078   74.6297 C   0  0  0  0  0  0
   68.0819   35.8184   71.1324 C   0  0  0  0  0  0
   67.8515   37.0955   70.3621 C   0  0  0  0  0  0
   68.5874   38.2886   70.6436 C   0  0  0  0  0  0
   68.3166   39.4757   69.9480 C   0  0  0  0  0  0
   67.3088   39.4818   68.9651 C   0  0  0  0  0  0
   67.0504   40.6525   68.3169 O   0  0  0  0  0  0
   66.5770   38.3075   68.6763 C   0  0  0  0  0  0
   66.8599   37.1422   69.3776 C   0  0  0  0  0  0
   67.3733   34.6613   70.5773 C   0  0  0  0  0  0
   66.1016   34.3030   71.0181 C   0  0  0  0  0  0
   65.4159   33.2430   70.4952 C   0  0  0  0  0  0
   65.9932   32.4887   69.4864 C   0  0  0  0  0  0
   65.3627   31.4376   68.8845 O   0  0  0  0  0  0
   65.0951   30.2510   69.6255 C   0  0  0  0  0  0
   63.7720   30.4630   70.3100 C   0  0  0  0  0  0
   63.7971   30.1743   71.7178 N   0  0  0  0  0  0
   63.6846   31.3922   72.5218 C   0  0  0  0  0  0
   62.6719   29.2965   72.0592 C   0  0  0  0  0  0
   67.2768   32.8193   69.0185 C   0  0  0  0  0  0
   67.9414   33.8844   69.5585 C   0  0  0  0  0  0
   66.2735   41.1368   68.5162 H   0  0  0  0  0  0
  1  2  1  0  0  0
  2  3  1  0  0  0
  3  4  1  0  0  0
  3 10  1  0  0  0
  4  5  2  0  0  0
  4  9  1  0  0  0
  5  6  1  0  0  0
  6  7  2  0  0  0
  7  8  1  0  0  0
  8  9  2  0  0  0
 10 11  1  0  0  0
 10 18  1  0  0  0
 11 12  2  0  0  0
 11 17  1  0  0  0
 12 13  1  0  0  0
 13 14  2  0  0  0
 14 15  1  0  0  0
 14 16  1  0  0  0
 15 30  1  0  0  0
 16 17  2  0  0  0
 18 19  2  0  0  0
 18 29  1  0  0  0
 19 20  1  0  0  0
 20 21  2  0  0  0
 21 22  1  0  0  0
 21 28  1  0  0  0
 22 23  1  0  0  0
 23 24  1  0  0  0
 24 25  1  0  0  0
 25 26  1  0  0  0
 25 27  1  0  0  0
 28 29  2  0  0  0
M  END
>  <CHROM.0>
28.49509176,-59.08840091,91.77778898,126.79041102

>  <CHROM.1>
166.82506662,134.57181442,-84.66812565,8.87043090,87.11520374,-106.08168699
-67.58219297,86.90500475,-129.57409267,109.65424620,66.90760214,34.85134999
71.26318397,-0.40152648,1.04954501,2.01674645

>  <FORMUL>
      OHT    C26 H29 N1 O2

>  <HET>
 OHT  A 600      29

>  <HETNAM>
     OHT 4-HYDROXYTAMOXIFEN

>  <Name>
OHT.pdb

>  <RI>
0

>  <Rbt.Current_Directory>
/home/malgorzata/Desktop/rDOCK_IFD/Wyniki/5b_estrogen_receptor

>  <Rbt.Executable>
rbdock ($Id: //depot/dev/client3/rdock/2013.1/src/exe/rbdock.cxx#4 $)

>  <Rbt.Library>
libRbt.so (2013.1, Build901 2013/11/27)

>  <Rbt.Parameter_File>
/home/malgorzata/Desktop/rDock_2013.1_src/data/scripts/soft_docking.prm

>  <Rbt.Receptor>
cavity.prm

>  <SCORE>
-77.0819

>  <SCORE.INTER>
-18.9941

>  <SCORE.INTER.CONST>
1

>  <SCORE.INTER.POLAR>
-0.263567

>  <SCORE.INTER.REPUL>
0.0438722

>  <SCORE.INTER.ROT>
9

>  <SCORE.INTER.VDW>
-32.7173

>  <SCORE.INTER.norm>
-0.654968

>  <SCORE.INTRA>
1.30123

>  <SCORE.INTRA.DIHEDRAL>
12.4999

>  <SCORE.INTRA.DIHEDRAL.0>
14.7815

>  <SCORE.INTRA.POLAR>
0

>  <SCORE.INTRA.POLAR.0>
0

>  <SCORE.INTRA.REPUL>
0

>  <SCORE.INTRA.REPUL.0>
0

>  <SCORE.INTRA.VDW>
-1.19875

>  <SCORE.INTRA.VDW.0>
-0.0652974

>  <SCORE.INTRA.norm>
0.0448701

>  <SCORE.RESTR>
0.550247

>  <SCORE.RESTR.CAVITY>
0.550247

>  <SCORE.RESTR.norm>
0.018974

>  <SCORE.SYSTEM>
-59.9393

>  <SCORE.SYSTEM.CONST>
0

>  <SCORE.SYSTEM.DIHEDRAL>
4.00459

>  <SCORE.SYSTEM.POLAR>
-0.276374

>  <SCORE.SYSTEM.REPUL>
0.0736216

>  <SCORE.SYSTEM.VDW>
-61.37

>  <SCORE.SYSTEM.norm>
-2.06687

>  <SCORE.heavy>
29

>  <SCORE.norm>
-2.65799

$$$$
OHT.pdb
  rDOCK(R)          3D
libRbt.so/2013.1/901 2013/11/27
 30 32  0  0  0  0  0  0  0  0999 V2000
   70.5108   31.9891   73.8741 C   0  0  0  0  0  0
   69.2540   31.3543   73.3453 C   0  0  0  0  0  0
   68.1657   32.3736   73.0792 C   0  0  0  0  0  0
   67.6119   32.9973   74.3196 C   0  0  0  0  0  0
   68.3754   33.9229   75.0622 C   0  0  0  0  0  0
   67.8386   34.5409   76.1921 C   0  0  0  0  0  0
   66.5532   34.2616   76.6127 C   0  0  0  0  0  0
   65.7958   33.3614   75.9019 C   0  0  0  0  0  0
   66.3220   32.7364   74.7657 C   0  0  0  0  0  0
   67.7392   32.6845   71.8198 C   0  0  0  0  0  0
   66.8117   31.8141   71.0077 C   0  0  0  0  0  0
   65.3957   31.8327   71.2046 C   0  0  0  0  0  0
   64.5614   30.9754   70.4727 C   0  0  0  0  0  0
   65.1339   30.0924   69.5377 C   0  0  0  0  0  0
   64.3044   29.2550   68.8532 O   0  0  0  0  0  0
   66.5322   30.0674   69.3326 C   0  0  0  0  0  0
   67.3412   30.9238   70.0686 C   0  0  0  0  0  0
   68.1620   33.9031   71.1229 C   0  0  0  0  0  0
   67.3624   34.5057   70.1546 C   0  0  0  0  0  0
   67.7287   35.6549   69.5126 C   0  0  0  0  0  0
   68.9366   36.2563   69.8278 C   0  0  0  0  0  0
   69.3610   37.4238   69.2611 O   0  0  0  0  0  0
   68.6210   38.6234   69.4668 C   0  0  0  0  0  0
   68.8345   39.4732   68.2434 C   0  0  0  0  0  0
   68.1187   40.7192   68.2736 N   0  0  0  0  0  0
   69.0001   41.8417   68.5982 C   0  0  0  0  0  0
   67.5209   40.9740   66.9579 C   0  0  0  0  0  0
   69.7709   35.6745   70.7981 C   0  0  0  0  0  0
   69.3810   34.5247   71.4255 C   0  0  0  0  0  0
   64.6419   28.7285   68.1555 H   0  0  0  0  0  0
  1  2  1  0  0  0
  2  3  1  0  0  0
  3  4  1  0  0  0
  3 10  1  0  0  0
  4  5  2  0  0  0
  4  9  1  0  0  0
  5  6  1  0  0  0
  6  7  2  0  0  0
  7  8  1  0  0  0
  8  9  2  0  0  0
 10 11  1  0  0  0
 10 18  1  0  0  0
 11 12  2  0  0  0
 11 17  1  0  0  0
 12 13  1  0  0  0
 13 14  2  0  0  0
 14 15  1  0  0  0
 14 16  1  0  0  0
 15 30  1  0  0  0
 16 17  2  0  0  0
 18 19  2  0  0  0
 18 29  1  0  0  0
 19 20  1  0  0  0
 20 21  2  0  0  0
 21 22  1  0  0  0
 21 28  1  0  0  0
 22 23  1  0  0  0
 23 24  1  0  0  0
 24 25  1  0  0  0
 25 26  1  0  0  0
 25 27  1  0  0  0
 28 29  2  0  0  0
M  END
>  <CHROM.0>
62.96676874,-60.43472831,-27.26781110,-149.82386937

>  <CHROM.1>
-68.55781221,71.92647496,77.39298433,81.18104254,-152.53677192,172.86135944
63.14575420,-150.40131845,178.39593259,102.88160886,67.63895691,34.38430169
71.26766112,-2.12421641,-1.17415840,-0.96995995

>  <FORMUL>
      OHT    C26 H29 N1 O2

>  <HET>
 OHT  A 600      29

>  <HETNAM>
     OHT 4-HYDROXYTAMOXIFEN

>  <Name>
OHT.pdb

>  <RI>
0

>  <Rbt.Current_Directory>
/home/malgorzata/Desktop/rDOCK_IFD/Wyniki/5b_estrogen_receptor

>  <Rbt.Executable>
rbdock ($Id: //depot/dev/client3/rdock/2013.1/src/exe/rbdock.cxx#4 $)

>  <Rbt.Library>
libRbt.so (2013.1, Build901 2013/11/27)

>  <Rbt.Parameter_File>
/home/malgorzata/Desktop/rDock_2013.1_src/data/scripts/soft_docking.prm

>  <Rbt.Receptor>
cavity.prm

>  <SCORE>
-79.253

>  <SCORE.INTER>
-16.4397

>  <SCORE.INTER.CONST>
1

>  <SCORE.INTER.POLAR>
-1.29013

>  <SCORE.INTER.REPUL>
0.101772

>  <SCORE.INTER.ROT>
9

>  <SCORE.INTER.VDW>
-26.9622

>  <SCORE.INTER.norm>
-0.566887

>  <SCORE.INTRA>
-2.36002

>  <SCORE.INTRA.DIHEDRAL>
3.09249

>  <SCORE.INTRA.DIHEDRAL.0>
14.7815

>  <SCORE.INTRA.POLAR>
0

>  <SCORE.INTRA.POLAR.0>
0

>  <SCORE.INTRA.REPUL>
0

>  <SCORE.INTRA.REPUL.0>
0

>  <SCORE.INTRA.VDW>
-2.97852

>  <SCORE.INTRA.VDW.0>
-0.0652974

>  <SCORE.INTRA.norm>
-0.08138

>  <SCORE.RESTR>
0.904828

>  <SCORE.RESTR.CAVITY>
0.904828

>  <SCORE.RESTR.norm>
0.031201

>  <SCORE.SYSTEM>
-61.358

>  <SCORE.SYSTEM.CONST>
0

>  <SCORE.SYSTEM.DIHEDRAL>
2.16086

>  <SCORE.SYSTEM.POLAR>
-0.198544

>  <SCORE.SYSTEM.REPUL>
0.12503

>  <SCORE.SYSTEM.VDW>
-62.3886

>  <SCORE.SYSTEM.norm>
-2.11579

>  <SCORE.heavy>
29

>  <SCORE.norm>
-2.73286

$$$$
OHT.pdb
  rDOCK(R)          3D
libRbt.so/2013.1/901 2013/11/27
 30 32  0  0  0  0  0  0  0  0999 V2000
   67.2658   37.4546   74.7143 C   0  0  0  0  0  0
   66.9182   36.5326   73.5779 C   0  0  0  0  0  0
   68.1500   35.9691   72.9003 C   0  0  0  0  0  0
   68.6720   36.8284   71.7941 C   0  0  0  0  0  0
   69.7528   37.7081   72.0152 C   0  0  0  0  0  0
   70.2703   38.4732   70.9694 C   0  0  0  0  0  0
   69.7384   38.3919   69.6976 C   0  0  0  0  0  0
   68.6842   37.5411   69.4647 C   0  0  0  0  0  0
   68.1576   36.7669   70.5047 C   0  0  0  0  0  0
   68.7205   34.7860   73.2738 C   0  0  0  0  0  0
   69.1252   33.7044   72.3024 C   0  0  0  0  0  0
   70.4362   33.6542   71.7338 C   0  0  0  0  0  0
   70.7697   32.6688   70.7935 C   0  0  0  0  0  0
   69.7971   31.7249   70.4128 C   0  0  0  0  0  0
   70.1391   30.7895   69.4824 O   0  0  0  0  0  0
   68.4989   31.7631   70.9705 C   0  0  0  0  0  0
   68.1883   32.7481   71.8996 C   0  0  0  0  0  0
   68.9816   34.4447   74.6755 C   0  0  0  0  0  0
   69.1137   35.4269   75.6541 C   0  0  0  0  0  0
   69.3324   35.1270   76.9692 C   0  0  0  0  0  0
   69.4261   33.8007   77.3592 C   0  0  0  0  0  0
   69.6066   33.4137   78.6562 O   0  0  0  0  0  0
   69.9251   32.0579   78.9551 C   0  0  0  0  0  0
   69.4360   31.8018   80.3549 C   0  0  0  0  0  0
   68.0578   31.3994   80.4206 N   0  0  0  0  0  0
   67.9123   30.0586   80.9892 C   0  0  0  0  0  0
   67.3121   32.3376   81.2674 C   0  0  0  0  0  0
   69.3007   32.7826   76.3982 C   0  0  0  0  0  0
   69.0823   33.1096   75.0892 C   0  0  0  0  0  0
   70.5665   31.0507   68.6906 H   0  0  0  0  0  0
  1  2  1  0  0  0
  2  3  1  0  0  0
  3  4  1  0  0  0
  3 10  1  0  0  0
  4  5  2  0  0  0
  4  9  1  0  0  0
  5  6  1  0  0  0
  6  7  2  0  0  0
  7  8  1  0  0  0
  8  9  2  0  0  0
 10 11  1  0  0  0
 10 18  1  0  0  0
 11 12  2  0  0  0
 11 17  1  0  0  0
 12 13  1  0  0  0
 13 14  2  0  0  0
 14 15  1  0  0  0
 14 16  1  0  0  0
 15 30  1  0  0  0
 16 17  2  0  0  0
 18 19  2  0  0  0
 18 29  1  0  0  0
 19 20  1  0  0  0
 20 21  2  0  0  0
 21 22  1  0  0  0
 21 28  1  0  0  0
 22 23  1  0  0  0
 23 24  1  0  0  0
 24 25  1  0  0  0
 25 26  1  0  0  0
 25 27  1  0  0  0
 28 29  2  0  0  0
M  END
>  <CHROM.0>
-170.64457448,-59.68744967,40.42230305,28.47127618

>  <CHROM.1>
-88.26573901,98.48791782,132.48206762,90.90891984,-22.93624698,-48.17042737
-169.09046384,-154.01904548,86.56234026,118.12225948,68.97955982,34.18295572
74.36204541,1.24311669,1.37743993,-0.86231726

>  <FORMUL>
      OHT    C26 H29 N1 O2

>  <HET>
 OHT  A 600      29

>  <HETNAM>
     OHT 4-HYDROXYTAMOXIFEN

>  <Name>
OHT.pdb

>  <RI>
0

>  <Rbt.Current_Directory>
/home/malgorzata/Desktop/rDOCK_IFD/Wyniki/5b_estrogen_receptor

>  <Rbt.Executable>
rbdock ($Id: //depot/dev/client3/rdock/2013.1/src/exe/rbdock.cxx#4 $)

>  <Rbt.Library>
libRbt.so (2013.1, Build901 2013/11/27)

>  <Rbt.Parameter_File>
/home/malgorzata/Desktop/rDock_2013.1_src/data/scripts/soft_docking.prm

>  <Rbt.Receptor>
cavity.prm

>  <SCORE>
-73.097

>  <SCORE.INTER>
-13.1124

>  <SCORE.INTER.CONST>
1

>  <SCORE.INTER.POLAR>
0

>  <SCORE.INTER.REPUL>
0

>  <SCORE.INTER.ROT>
9

>  <SCORE.INTER.VDW>
-27.5124

>  <SCORE.INTER.norm>
-0.452151

>  <SCORE.INTRA>
1.01048

>  <SCORE.INTRA.DIHEDRAL>
3.49746

>  <SCORE.INTRA.DIHEDRAL.0>
14.7815

>  <SCORE.INTRA.POLAR>
0

>  <SCORE.INTRA.POLAR.0>
0

>  <SCORE.INTRA.REPUL>
0

>  <SCORE.INTRA.REPUL.0>
0

>  <SCORE.INTRA.VDW>
0.310987

>  <SCORE.INTRA.VDW.0>
-0.0652974

>  <SCORE.INTRA.norm>
0.0348441

>  <SCORE.RESTR>
0.224521

>  <SCORE.RESTR.CAVITY>
0.224521

>  <SCORE.RESTR.norm>
0.0077421

>  <SCORE.SYSTEM>
-61.2196

>  <SCORE.SYSTEM.CONST>
0

>  <SCORE.SYSTEM.DIHEDRAL>
2.02344

>  <SCORE.SYSTEM.POLAR>
-0.249878

>  <SCORE.SYSTEM.REPUL>
0.0979461

>  <SCORE.SYSTEM.VDW>
-61.8715

>  <SCORE.SYSTEM.norm>
-2.11102

>  <SCORE.heavy>
29

>  <SCORE.norm>
-2.52059

$$$$
OHT.pdb
  rDOCK(R)          3D
libRbt.so/2013.1/901 2013/11/27
 30 32  0  0  0  0  0  0  0  0999 V2000
   65.6212   34.2811   68.9621 C   0  0  0  0  0  0
   65.9328   35.5043   69.7800 C   0  0  0  0  0  0
   66.9855   35.2348   70.8352 C   0  0  0  0  0  0
   68.2353   36.0344   70.6532 C   0  0  0  0  0  0
   69.1459   36.1987   71.7186 C   0  0  0  0  0  0
   70.3354   36.9040   71.5329 C   0  0  0  0  0  0
   70.6494   37.4595   70.3081 C   0  0  0  0  0  0
   69.7731   37.3102   69.2596 C   0  0  0  0  0  0
   68.5777   36.6033   69.4326 C   0  0  0  0  0  0
   66.7984   34.3428   71.8520 C   0  0  0  0  0  0
   66.2460   32.9518   71.6587 C   0  0  0  0  0  0
   64.9194   32.6048   72.0637 C   0  0  0  0  0  0
   64.4494   31.2914   71.9204 C   0  0  0  0  0  0
   65.2998   30.3132   71.3713 C   0  0  0  0  0  0
   64.8271   29.0396   71.2608 O   0  0  0  0  0  0
   66.6121   30.6454   70.9648 C   0  0  0  0  0  0
   67.0590   31.9520   71.1164 C   0  0  0  0  0  0
   67.1060   34.6641   73.2489 C   0  0  0  0  0  0
   67.5164   33.6850   74.1505 C   0  0  0  0  0  0
   67.8311   33.9697   75.4493 C   0  0  0  0  0  0
   67.7461   35.2772   75.9002 C   0  0  0  0  0  0
   68.0770   35.6531   77.1705 O   0  0  0  0  0  0
   69.2730   35.1617   77.7679 C   0  0  0  0  0  0
   69.1675   35.4539   79.2403 C   0  0  0  0  0  0
   70.2762   34.9578   80.0086 N   0  0  0  0  0  0
   70.7886   35.9692   80.9342 C   0  0  0  0  0  0
   69.8478   33.7950   80.7945 C   0  0  0  0  0  0
   67.3326   36.2913   75.0190 C   0  0  0  0  0  0
   67.0234   35.9797   73.7247 C   0  0  0  0  0  0
   64.0399   28.7919   71.7046 H   0  0  0  0  0  0
  1  2  1  0  0  0
  2  3  1  0  0  0
  3  4  1  0  0  0
  3 10  1  0  0  0
  4  5  2  0  0  0
  4  9  1  0  0  0
  5  6  1  0  0  0
  6  7  2  0  0  0
  7  8  1  0  0  0
  8  9  2  0  0  0
 10 11  1  0  0  0
 10 18  1  0  0  0
 11 12  2  0  0  0
 11 17  1  0  0  0
 12 13  1  0  0  0
 13 14  2  0  0  0
 14 15  1  0  0  0
 14 16  1  0  0  0
 15 30  1  0  0  0
 16 17  2  0  0  0
 18 19  2  0  0  0
 18 29  1  0  0  0
 19 20  1  0  0  0
 20 21  2  0  0  0
 21 22  1  0  0  0
 21 28  1  0  0  0
 22 23  1  0  0  0
 23 24  1  0  0  0
 24 25  1  0  0  0
 25 26  1  0  0  0
 25 27  1  0  0  0
 28 29  2  0  0  0
M  END
>  <CHROM.0>
81.49293854,-59.24575673,-27.32635719,5.38386105

>  <CHROM.1>
117.40338293,161.94515311,46.61747692,-106.71485386,-149.55013849,-12.95893003
44.90852747,-165.60376299,177.07590976,132.96771429,67.71273023,34.43900727
73.49023438,-2.17420487,0.96005613,1.88111650

>  <FORMUL>
      OHT    C26 H29 N1 O2

>  <HET>
 OHT  A 600      29

>  <HETNAM>
     OHT 4-HYDROXYTAMOXIFEN

>  <Name>
OHT.pdb

>  <RI>
0

>  <Rbt.Current_Directory>
/home/malgorzata/Desktop/rDOCK_IFD/Wyniki/5b_estrogen_receptor

>  <Rbt.Executable>
rbdock ($Id: //depot/dev/client3/rdock/2013.1/src/exe/rbdock.cxx#4 $)

>  <Rbt.Library>
libRbt.so (2013.1, Build901 2013/11/27)

>  <Rbt.Parameter_File>
/home/malgorzata/Desktop/rDock_2013.1_src/data/scripts/soft_docking.prm

>  <Rbt.Receptor>
cavity.prm

>  <SCORE>
-84.5105

>  <SCORE.INTER>
-22.2877

>  <SCORE.INTER.CONST>
1

>  <SCORE.INTER.POLAR>
0

>  <SCORE.INTER.REPUL>
0

>  <SCORE.INTER.ROT>
9

>  <SCORE.INTER.VDW>
-36.6877

>  <SCORE.INTER.norm>
-0.768541

>  <SCORE.INTRA>
-0.983591

>  <SCORE.INTRA.DIHEDRAL>
-2.90766

>  <SCORE.INTRA.DIHEDRAL.0>
14.7815

>  <SCORE.INTRA.POLAR>
0

>  <SCORE.INTRA.POLAR.0>
0

>  <SCORE.INTRA.REPUL>
0

>  <SCORE.INTRA.REPUL.0>
0

>  <SCORE.INTRA.VDW>
-0.402059

>  <SCORE.INTRA.VDW.0>
-0.0652974

>  <SCORE.INTRA.norm>
-0.0339169

>  <SCORE.RESTR>
0

>  <SCORE.RESTR.CAVITY>
0

>  <SCORE.RESTR.norm>
0

>  <SCORE.SYSTEM>
-61.2393

>  <SCORE.SYSTEM.CONST>
0

>  <SCORE.SYSTEM.DIHEDRAL>
1.00791

>  <SCORE.SYSTEM.POLAR>
-0.270194

>  <SCORE.SYSTEM.REPUL>
0.0801901

>  <SCORE.SYSTEM.VDW>
-61.2255

>  <SCORE.SYSTEM.norm>
-2.1117

>  <SCORE.heavy>
29

>  <SCORE.norm>
-2.91416

$$$$
OHT.pdb
  rDOCK(R)          3D
libRbt.so/2013.1/901 2013/11/27
 30 32  0  0  0  0  0  0  0  0999 V2000
   68.8830   31.5859   73.8188 C   0  0  0  0  0  0
   67.8530   32.6113   73.4316 C   0  0  0  0  0  0
   67.0588   32.1929   72.2116 C   0  0  0  0  0  0
   65.9296   31.2635   72.5209 C   0  0  0  0  0  0
   66.1566   30.0679   73.2350 C   0  0  0  0  0  0
   65.0941   29.2260   73.5652 C   0  0  0  0  0  0
   63.7992   29.5382   73.2007 C   0  0  0  0  0  0
   63.5600   30.6984   72.5034 C   0  0  0  0  0  0
   64.6169   31.5521   72.1680 C   0  0  0  0  0  0
   67.3565   32.6304   70.9528 C   0  0  0  0  0  0
   67.4593   31.7241   69.7505 C   0  0  0  0  0  0
   66.6870   30.5257   69.6419 C   0  0  0  0  0  0
   66.8406   29.6746   68.5380 C   0  0  0  0  0  0
   67.7664   30.0128   67.5329 C   0  0  0  0  0  0
   67.9121   29.1597   66.4801 O   0  0  0  0  0  0
   68.5331   31.1965   67.6283 C   0  0  0  0  0  0
   68.3668   32.0254   68.7306 C   0  0  0  0  0  0
   67.6240   34.0398   70.6509 C   0  0  0  0  0  0
   68.8966   34.4825   70.2979 C   0  0  0  0  0  0
   69.1595   35.7874   69.9891 C   0  0  0  0  0  0
   68.1315   36.7158   70.0214 C   0  0  0  0  0  0
   68.3003   38.0302   69.6920 O   0  0  0  0  0  0
   68.2158   38.4375   68.3297 C   0  0  0  0  0  0
   67.5304   39.7771   68.3252 C   0  0  0  0  0  0
   67.9619   40.6431   67.2624 N   0  0  0  0  0  0
   66.9175   40.8224   66.2528 C   0  0  0  0  0  0
   68.2986   41.9622   67.8100 C   0  0  0  0  0  0
   66.8346   36.3055   70.3762 C   0  0  0  0  0  0
   66.5983   34.9943   70.6807 C   0  0  0  0  0  0
   68.5630   28.4863   66.5094 H   0  0  0  0  0  0
  1  2  1  0  0  0
  2  3  1  0  0  0
  3  4  1  0  0  0
  3 10  1  0  0  0
  4  5  2  0  0  0
  4  9  1  0  0  0
  5  6  1  0  0  0
  6  7  2  0  0  0
  7  8  1  0  0  0
  8  9  2  0  0  0
 10 11  1  0  0  0
 10 18  1  0  0  0
 11 12  2  0  0  0
 11 17  1  0  0  0
 12 13  1  0  0  0
 13 14  2  0  0  0
 14 15  1  0  0  0
 14 16  1  0  0  0
 15 30  1  0  0  0
 16 17  2  0  0  0
 18 19  2  0  0  0
 18 29  1  0  0  0
 19 20  1  0  0  0
 20 21  2  0  0  0
 21 22  1  0  0  0
 21 28  1  0  0  0
 22 23  1  0  0  0
 23 24  1  0  0  0
 24 25  1  0  0  0
 25 26  1  0  0  0
 25 27  1  0  0  0
 28 29  2  0  0  0
M  END
>  <CHROM.0>
-26.87320956,-58.28396316,135.42765789,-134.14644177

>  <CHROM.1>
82.44822717,-54.05346483,132.37769500,30.24837750,110.60239672,-91.96175156
85.27166581,142.52103088,148.36104164,109.75901117,67.21977201,33.82144136
70.12986780,2.12331525,-1.24367456,-2.96291742

>  <FORMUL>
      OHT    C26 H29 N1 O2

>  <HET>
 OHT  A 600      29

>  <HETNAM>
     OHT 4-HYDROXYTAMOXIFEN

>  <Name>
OHT.pdb

>  <RI>
0

>  <Rbt.Current_Directory>
/home/malgorzata/Desktop/rDOCK_IFD/Wyniki/5b_estrogen_receptor

>  <Rbt.Executable>
rbdock ($Id: //depot/dev/client3/rdock/2013.1/src/exe/rbdock.cxx#4 $)

>  <Rbt.Library>
libRbt.so (2013.1, Build901 2013/11/27)

>  <Rbt.Parameter_File>
/home/malgorzata/Desktop/rDock_2013.1_src/data/scripts/soft_docking.prm

>  <Rbt.Receptor>
cavity.prm

>  <SCORE>
-75.884

>  <SCORE.INTER>
-18.3511

>  <SCORE.INTER.CONST>
1

>  <SCORE.INTER.POLAR>
-0.537565

>  <SCORE.INTER.REPUL>
0.0460193

>  <SCORE.INTER.ROT>
9

>  <SCORE.INTER.VDW>
-31.1535

>  <SCORE.INTER.norm>
-0.632798

>  <SCORE.INTRA>
-0.108966

>  <SCORE.INTRA.DIHEDRAL>
13.2475

>  <SCORE.INTRA.DIHEDRAL.0>
14.7815

>  <SCORE.INTRA.POLAR>
0

>  <SCORE.INTRA.POLAR.0>
0

>  <SCORE.INTRA.REPUL>
0

>  <SCORE.INTRA.REPUL.0>
0

>  <SCORE.INTRA.VDW>
-2.75847

>  <SCORE.INTRA.VDW.0>
-0.0652974

>  <SCORE.INTRA.norm>
-0.00375745

>  <SCORE.RESTR>
1.06754

>  <SCORE.RESTR.CAVITY>
1.06754

>  <SCORE.RESTR.norm>
0.0368118

>  <SCORE.SYSTEM>
-58.4914

>  <SCORE.SYSTEM.CONST>
0

>  <SCORE.SYSTEM.DIHEDRAL>
3.43182

>  <SCORE.SYSTEM.POLAR>
-0.295763

>  <SCORE.SYSTEM.REPUL>
0.0386678

>  <SCORE.SYSTEM.VDW>
-59.395

>  <SCORE.SYSTEM.norm>
-2.01694

>  <SCORE.heavy>
29

>  <SCORE.norm>
-2.61669

$$$$
OHT.pdb
  rDOCK(R)          3D
libRbt.so/2013.1/901 2013/11/27
 30 32  0  0  0  0  0  0  0  0999 V2000
   65.8354   31.8149   68.0080 C   0  0  0  0  0  0
   66.8554   32.6780   68.6985 C   0  0  0  0  0  0
   66.6242   32.7533   70.1935 C   0  0  0  0  0  0
   65.6607   31.7306   70.7036 C   0  0  0  0  0  0
   64.4239   32.1212   71.2592 C   0  0  0  0  0  0
   63.5053   31.1633   71.6898 C   0  0  0  0  0  0
   63.7830   29.8144   71.5866 C   0  0  0  0  0  0
   64.9838   29.4161   71.0490 C   0  0  0  0  0  0
   65.9126   30.3671   70.6117 C   0  0  0  0  0  0
   67.2436   33.6737   70.9896 C   0  0  0  0  0  0
   67.5311   35.0934   70.5662 C   0  0  0  0  0  0
   66.7226   36.1886   71.0032 C   0  0  0  0  0  0
   66.9804   37.4913   70.5526 C   0  0  0  0  0  0
   68.0480   37.7117   69.6619 C   0  0  0  0  0  0
   68.2661   38.9833   69.2224 O   0  0  0  0  0  0
   68.8558   36.6370   69.2254 C   0  0  0  0  0  0
   68.5829   35.3540   69.6826 C   0  0  0  0  0  0
   67.7084   33.3589   72.3439 C   0  0  0  0  0  0
   67.1874   34.0032   73.4634 C   0  0  0  0  0  0
   67.5905   33.7055   74.7346 C   0  0  0  0  0  0
   68.5507   32.7265   74.9334 C   0  0  0  0  0  0
   68.9822   32.3426   76.1707 O   0  0  0  0  0  0
   69.9720   33.1113   76.8479 C   0  0  0  0  0  0
   69.8424   32.7826   78.3106 C   0  0  0  0  0  0
   68.7955   33.5091   78.9753 N   0  0  0  0  0  0
   67.5354   32.7645   78.9741 C   0  0  0  0  0  0
   69.1784   33.7561   80.3701 C   0  0  0  0  0  0
   69.1010   32.0572   73.8265 C   0  0  0  0  0  0
   68.6805   32.3740   72.5653 C   0  0  0  0  0  0
   67.7213   39.3475   68.5527 H   0  0  0  0  0  0
  1  2  1  0  0  0
  2  3  1  0  0  0
  3  4  1  0  0  0
  3 10  1  0  0  0
  4  5  2  0  0  0
  4  9  1  0  0  0
  5  6  1  0  0  0
  6  7  2  0  0  0
  7  8  1  0  0  0
  8  9  2  0  0  0
 10 11  1  0  0  0
 10 18  1  0  0  0
 11 12  2  0  0  0
 11 17  1  0  0  0
 12 13  1  0  0  0
 13 14  2  0  0  0
 14 15  1  0  0  0
 14 16  1  0  0  0
 15 30  1  0  0  0
 16 17  2  0  0  0
 18 19  2  0  0  0
 18 29  1  0  0  0
 19 20  1  0  0  0
 20 21  2  0  0  0
 21 22  1  0  0  0
 21 28  1  0  0  0
 22 23  1  0  0  0
 23 24  1  0  0  0
 24 25  1  0  0  0
 25 26  1  0  0  0
 25 27  1  0  0  0
 28 29  2  0  0  0
M  END
>  <CHROM.0>
125.44817737,-59.60634752,-137.53947291,-168.06859917

>  <CHROM.1>
13.42867838,-114.89160569,36.79976320,101.81465714,-117.25733546,-77.62893181
-81.70141537,158.49890627,-81.62923727,92.42021484,67.37967792,33.45658654
72.71207355,2.06636159,-1.01481344,-0.99557623

>  <FORMUL>
      OHT    C26 H29 N1 O2

>  <HET>
 OHT  A 600      29

>  <HETNAM>
     OHT 4-HYDROXYTAMOXIFEN

>  <Name>
OHT.pdb

>  <RI>
0

>  <Rbt.Current_Directory>
/home/malgorzata/Desktop/rDOCK_IFD/Wyniki/5b_estrogen_receptor

>  <Rbt.Executable>
rbdock ($Id: //depot/dev/client3/rdock/2013.1/src/exe/rbdock.cxx#4 $)

>  <Rbt.Library>
libRbt.so (2013.1, Build901 2013/11/27)

>  <Rbt.Parameter_File>
/home/malgorzata/Desktop/rDock_2013.1_src/data/scripts/soft_docking.prm

>  <Rbt.Receptor>
cavity.prm

>  <SCORE>
-83.3791

>  <SCORE.INTER>
-23.375

>  <SCORE.INTER.CONST>
1

>  <SCORE.INTER.POLAR>
-1.08807

>  <SCORE.INTER.REPUL>
0.0973601

>  <SCORE.INTER.ROT>
9

>  <SCORE.INTER.VDW>
-34.5623

>  <SCORE.INTER.norm>
-0.806034

>  <SCORE.INTRA>
1.12371

>  <SCORE.INTRA.DIHEDRAL>
5.88732

>  <SCORE.INTRA.DIHEDRAL.0>
14.7815

>  <SCORE.INTRA.POLAR>
0

>  <SCORE.INTRA.POLAR.0>
0

>  <SCORE.INTRA.REPUL>
0

>  <SCORE.INTRA.REPUL.0>
0

>  <SCORE.INTRA.VDW>
-0.0537509

>  <SCORE.INTRA.VDW.0>
-0.0652974

>  <SCORE.INTRA.norm>
0.0387487

>  <SCORE.RESTR>
0.269794

>  <SCORE.RESTR.CAVITY>
0.269794

>  <SCORE.RESTR.norm>
0.00930325

>  <SCORE.SYSTEM>
-61.3976

>  <SCORE.SYSTEM.CONST>
0

>  <SCORE.SYSTEM.DIHEDRAL>
1.14343

>  <SCORE.SYSTEM.POLAR>
-0.253881

>  <SCORE.SYSTEM.REPUL>
0.0947697

>  <SCORE.SYSTEM.VDW>
-61.58

>  <SCORE.SYSTEM.norm>
-2.11716

>  <SCORE.heavy>
29

>  <SCORE.norm>
-2.87514

$$$$
OHT.pdb
  rDOCK(R)          3D
libRbt.so/2013.1/901 2013/11/27
 30 32  0  0  0  0  0  0  0  0999 V2000
   64.0684   31.6421   72.9700 C   0  0  0  0  0  0
   65.3697   31.8616   73.6916 C   0  0  0  0  0  0
   66.5362   32.0095   72.7368 C   0  0  0  0  0  0
   66.4431   31.1258   71.5348 C   0  0  0  0  0  0
   67.0355   29.8451   71.5356 C   0  0  0  0  0  0
   66.9057   29.0026   70.4311 C   0  0  0  0  0  0
   66.1999   29.3997   69.3125 C   0  0  0  0  0  0
   65.6175   30.6446   69.2940 C   0  0  0  0  0  0
   65.7387   31.4981   70.3964 C   0  0  0  0  0  0
   67.5698   32.8725   72.9640 C   0  0  0  0  0  0
   68.3333   32.9457   74.2637 C   0  0  0  0  0  0
   68.4812   34.1726   74.9827 C   0  0  0  0  0  0
   69.2402   34.2230   76.1609 C   0  0  0  0  0  0
   69.8578   33.0488   76.6313 C   0  0  0  0  0  0
   70.6066   33.1275   77.7674 O   0  0  0  0  0  0
   69.7160   31.8296   75.9303 C   0  0  0  0  0  0
   68.9610   31.8012   74.7646 C   0  0  0  0  0  0
   68.0299   33.8337   71.9572 C   0  0  0  0  0  0
   68.8552   33.4490   70.9033 C   0  0  0  0  0  0
   69.2737   34.3254   69.9420 C   0  0  0  0  0  0
   68.8680   35.6488   70.0033 C   0  0  0  0  0  0
   69.2099   36.5800   69.0650 O   0  0  0  0  0  0
   69.8667   37.7801   69.4615 C   0  0  0  0  0  0
   70.7580   37.4180   70.6186 C   0  0  0  0  0  0
   70.0984   37.4710   71.8944 N   0  0  0  0  0  0
   70.6288   36.4686   72.8196 C   0  0  0  0  0  0
   70.2957   38.7955   72.4945 C   0  0  0  0  0  0
   68.0372   36.0737   71.0547 C   0  0  0  0  0  0
   67.6328   35.1769   72.0035 C   0  0  0  0  0  0
   71.5340   32.9999   77.7270 H   0  0  0  0  0  0
  1  2  1  0  0  0
  2  3  1  0  0  0
  3  4  1  0  0  0
  3 10  1  0  0  0
  4  5  2  0  0  0
  4  9  1  0  0  0
  5  6  1  0  0  0
  6  7  2  0  0  0
  7  8  1  0  0  0
  8  9  2  0  0  0
 10 11  1  0  0  0
 10 18  1  0  0  0
 11 12  2  0  0  0
 11 17  1  0  0  0
 12 13  1  0  0  0
 13 14  2  0  0  0
 14 15  1  0  0  0
 14 16  1  0  0  0
 15 30  1  0  0  0
 16 17  2  0  0  0
 18 19  2  0  0  0
 18 29  1  0  0  0
 19 20  1  0  0  0
 20 21  2  0  0  0
 21 22  1  0  0  0
 21 28  1  0  0  0
 22 23  1  0  0  0
 23 24  1  0  0  0
 24 25  1  0  0  0
 25 26  1  0  0  0
 25 27  1  0  0  0
 28 29  2  0  0  0
M  END
>  <CHROM.0>
91.55164505,-62.18893354,68.18163678,65.82045033

>  <CHROM.1>
-36.95585247,-92.16414206,50.03644261,-125.58698826,-79.24435182,-112.93643623
-124.32402440,34.35155847,-86.88638861,147.42142461,68.25839235,33.66785715
72.35128438,2.71265516,0.97629341,2.07201884

>  <FORMUL>
      OHT    C26 H29 N1 O2

>  <HET>
 OHT  A 600      29

>  <HETNAM>
     OHT 4-HYDROXYTAMOXIFEN

>  <Name>
OHT.pdb

>  <RI>
0

>  <Rbt.Current_Directory>
/home/malgorzata/Desktop/rDOCK_IFD/Wyniki/5b_estrogen_receptor

>  <Rbt.Executable>
rbdock ($Id: //depot/dev/client3/rdock/2013.1/src/exe/rbdock.cxx#4 $)

>  <Rbt.Library>
libRbt.so (2013.1, Build901 2013/11/27)

>  <Rbt.Parameter_File>
/home/malgorzata/Desktop/rDock_2013.1_src/data/scripts/soft_docking.prm

>  <Rbt.Receptor>
cavity.prm

>  <SCORE>
-70.109

>  <SCORE.INTER>
-16.2868

>  <SCORE.INTER.CONST>
1

>  <SCORE.INTER.POLAR>
-0.323648

>  <SCORE.INTER.REPUL>
0.0278175

>  <SCORE.INTER.ROT>
9

>  <SCORE.INTER.VDW>
-29.7255

>  <SCORE.INTER.norm>
-0.561615

>  <SCORE.INTRA>
2.69752

>  <SCORE.INTRA.DIHEDRAL>
6.71175

>  <SCORE.INTRA.DIHEDRAL.0>
14.7815

>  <SCORE.INTRA.POLAR>
0

>  <SCORE.INTRA.POLAR.0>
0

>  <SCORE.INTRA.REPUL>
0

>  <SCORE.INTRA.REPUL.0>
0

>  <SCORE.INTRA.VDW>
1.35517

>  <SCORE.INTRA.VDW.0>
-0.0652974

>  <SCORE.INTRA.norm>
0.0930181

>  <SCORE.RESTR>
0.884656

>  <SCORE.RESTR.CAVITY>
0.884656

>  <SCORE.RESTR.norm>
0.0305054

>  <SCORE.SYSTEM>
-57.4044

>  <SCORE.SYSTEM.CONST>
0

>  <SCORE.SYSTEM.DIHEDRAL>
4.97643

>  <SCORE.SYSTEM.POLAR>
-0.0875789

>  <SCORE.SYSTEM.REPUL>
0.468

>  <SCORE.SYSTEM.VDW>
-61.9348

>  <SCORE.SYSTEM.norm>
-1.97946

>  <SCORE.heavy>
29

>  <SCORE.norm>
-2.41755

$$$$
OHT.pdb
  rDOCK(R)          3D
libRbt.so/2013.1/901 2013/11/27
 30 32  0  0  0  0  0  0  0  0999 V2000
   71.3546   35.9958   72.9347 C   0  0  0  0  0  0
   70.7874   34.6058   73.0264 C   0  0  0  0  0  0
   69.2745   34.6081   73.0983 C   0  0  0  0  0  0
   68.7403   34.5425   74.4929 C   0  0  0  0  0  0
   69.5580   34.1061   75.5569 C   0  0  0  0  0  0
   69.0728   34.0922   76.8650 C   0  0  0  0  0  0
   67.7847   34.5003   77.1504 C   0  0  0  0  0  0
   66.9740   34.9272   76.1258 C   0  0  0  0  0  0
   67.4495   34.9478   74.8098 C   0  0  0  0  0  0
   68.4839   34.6648   71.9864 C   0  0  0  0  0  0
   67.5384   33.5646   71.5705 C   0  0  0  0  0  0
   67.5426   33.0284   70.2450 C   0  0  0  0  0  0
   66.6179   32.0430   69.8702 C   0  0  0  0  0  0
   65.6811   31.5844   70.8156 C   0  0  0  0  0  0
   64.7799   30.6410   70.4217 O   0  0  0  0  0  0
   65.6696   32.1051   72.1296 C   0  0  0  0  0  0
   66.5932   33.0816   72.4805 C   0  0  0  0  0  0
   68.4923   35.8098   71.0708 C   0  0  0  0  0  0
   69.5327   36.0155   70.1680 C   0  0  0  0  0  0
   69.5456   37.0628   69.2903 C   0  0  0  0  0  0
   68.4900   37.9603   69.2848 C   0  0  0  0  0  0
   68.4066   39.0113   68.4171 O   0  0  0  0  0  0
   69.2081   40.1702   68.6258 C   0  0  0  0  0  0
   68.3984   41.3432   68.1437 C   0  0  0  0  0  0
   67.4711   41.8454   69.1202 N   0  0  0  0  0  0
   67.4636   43.3086   69.1569 C   0  0  0  0  0  0
   66.1157   41.3903   68.7900 C   0  0  0  0  0  0
   67.4239   37.7858   70.1842 C   0  0  0  0  0  0
   67.4354   36.7299   71.0519 C   0  0  0  0  0  0
   64.6602   30.4589   69.5104 H   0  0  0  0  0  0
  1  2  1  0  0  0
  2  3  1  0  0  0
  3  4  1  0  0  0
  3 10  1  0  0  0
  4  5  2  0  0  0
  4  9  1  0  0  0
  5  6  1  0  0  0
  6  7  2  0  0  0
  7  8  1  0  0  0
  8  9  2  0  0  0
 10 11  1  0  0  0
 10 18  1  0  0  0
 11 12  2  0  0  0
 11 17  1  0  0  0
 12 13  1  0  0  0
 13 14  2  0  0  0
 14 15  1  0  0  0
 14 16  1  0  0  0
 15 30  1  0  0  0
 16 17  2  0  0  0
 18 19  2  0  0  0
 18 29  1  0  0  0
 19 20  1  0  0  0
 20 21  2  0  0  0
 21 22  1  0  0  0
 21 28  1  0  0  0
 22 23  1  0  0  0
 23 24  1  0  0  0
 24 25  1  0  0  0
 25 26  1  0  0  0
 25 27  1  0  0  0
 28 29  2  0  0  0
M  END
>  <CHROM.0>
-2.56729226,-58.90698651,-131.21997854,6.26481683

>  <CHROM.1>
-95.44357176,-18.30674943,116.41489976,-128.97872438,75.43476265,-14.11505986
-76.00531399,-146.71733048,83.88479108,137.32066313,67.98361400,36.00165774
71.53983408,-1.67660999,-1.08216943,-0.64569732

>  <FORMUL>
      OHT    C26 H29 N1 O2

>  <HET>
 OHT  A 600      29

>  <HETNAM>
     OHT 4-HYDROXYTAMOXIFEN

>  <Name>
OHT.pdb

>  <RI>
0

>  <Rbt.Current_Directory>
/home/malgorzata/Desktop/rDOCK_IFD/Wyniki/5b_estrogen_receptor

>  <Rbt.Executable>
rbdock ($Id: //depot/dev/client3/rdock/2013.1/src/exe/rbdock.cxx#4 $)

>  <Rbt.Library>
libRbt.so (2013.1, Build901 2013/11/27)

>  <Rbt.Parameter_File>
/home/malgorzata/Desktop/rDock_2013.1_src/data/scripts/soft_docking.prm

>  <Rbt.Receptor>
cavity.prm

>  <SCORE>
-82.91

>  <SCORE.INTER>
-20.2404

>  <SCORE.INTER.CONST>
1

>  <SCORE.INTER.POLAR>
-0.79214

>  <SCORE.INTER.REPUL>
0.312149

>  <SCORE.INTER.ROT>
9

>  <SCORE.INTER.VDW>
-33.5079

>  <SCORE.INTER.norm>
-0.697946

>  <SCORE.INTRA>
-1.71565

>  <SCORE.INTRA.DIHEDRAL>
5.53251

>  <SCORE.INTRA.DIHEDRAL.0>
14.7815

>  <SCORE.INTRA.POLAR>
0

>  <SCORE.INTRA.POLAR.0>
0

>  <SCORE.INTRA.REPUL>
0

>  <SCORE.INTRA.REPUL.0>
0

>  <SCORE.INTRA.VDW>
-2.82215

>  <SCORE.INTRA.VDW.0>
-0.0652974

>  <SCORE.INTRA.norm>
-0.0591603

>  <SCORE.RESTR>
0.125048

>  <SCORE.RESTR.CAVITY>
0.125048

>  <SCORE.RESTR.norm>
0.004312

>  <SCORE.SYSTEM>
-61.0789

>  <SCORE.SYSTEM.CONST>
0

>  <SCORE.SYSTEM.DIHEDRAL>
1.00628

>  <SCORE.SYSTEM.POLAR>
-0.282644

>  <SCORE.SYSTEM.REPUL>
0.0659177

>  <SCORE.SYSTEM.VDW>
-60.9507

>  <SCORE.SYSTEM.norm>
-2.10617

>  <SCORE.heavy>
29

>  <SCORE.norm>
-2.85896

$$$$
OHT.pdb
  rDOCK(R)          3D
libRbt.so/2013.1/901 2013/11/27
 30 32  0  0  0  0  0  0  0  0999 V2000
   71.2720   36.4107   71.8653 C   0  0  0  0  0  0
   70.1737   36.9718   72.7262 C   0  0  0  0  0  0
   68.9501   36.0793   72.7475 C   0  0  0  0  0  0
   67.9690   36.3806   71.6607 C   0  0  0  0  0  0
   66.5819   36.2606   71.8899 C   0  0  0  0  0  0
   65.6664   36.5894   70.8896 C   0  0  0  0  0  0
   66.0924   37.0355   69.6540 C   0  0  0  0  0  0
   67.4402   37.1570   69.4130 C   0  0  0  0  0  0
   68.3684   36.8324   70.4088 C   0  0  0  0  0  0
   68.7716   35.0955   73.6775 C   0  0  0  0  0  0
   68.2212   33.7271   73.3583 C   0  0  0  0  0  0
   68.0563   33.2765   72.0114 C   0  0  0  0  0  0
   67.4936   32.0206   71.7422 C   0  0  0  0  0  0
   67.0909   31.2036   72.8155 C   0  0  0  0  0  0
   66.5283   29.9959   72.5280 O   0  0  0  0  0  0
   67.2519   31.6373   74.1511 C   0  0  0  0  0  0
   67.8103   32.8855   74.3964 C   0  0  0  0  0  0
   69.0872   35.2856   75.0965 C   0  0  0  0  0  0
   69.7227   34.2958   75.8425 C   0  0  0  0  0  0
   70.0470   34.4645   77.1592 C   0  0  0  0  0  0
   69.7409   35.6605   77.7885 C   0  0  0  0  0  0
   70.0623   35.9247   79.0890 O   0  0  0  0  0  0
   69.1032   36.5338   79.9481 C   0  0  0  0  0  0
   69.6650   37.8753   80.3339 C   0  0  0  0  0  0
   68.6863   38.9277   80.3524 N   0  0  0  0  0  0
   68.6776   39.6359   81.6333 C   0  0  0  0  0  0
   68.9902   39.8995   79.2957 C   0  0  0  0  0  0
   69.0969   36.6810   77.0675 C   0  0  0  0  0  0
   68.7834   36.4867   75.7515 C   0  0  0  0  0  0
   67.0625   29.2269   72.4916 H   0  0  0  0  0  0
  1  2  1  0  0  0
  2  3  1  0  0  0
  3  4  1  0  0  0
  3 10  1  0  0  0
  4  5  2  0  0  0
  4  9  1  0  0  0
  5  6  1  0  0  0
  6  7  2  0  0  0
  7  8  1  0  0  0
  8  9  2  0  0  0
 10 11  1  0  0  0
 10 18  1  0  0  0
 11 12  2  0  0  0
 11 17  1  0  0  0
 12 13  1  0  0  0
 13 14  2  0  0  0
 14 15  1  0  0  0
 14 16  1  0  0  0
 15 30  1  0  0  0
 16 17  2  0  0  0
 18 19  2  0  0  0
 18 29  1  0  0  0
 19 20  1  0  0  0
 20 21  2  0  0  0
 21 22  1  0  0  0
 21 28  1  0  0  0
 22 23  1  0  0  0
 23 24  1  0  0  0
 24 25  1  0  0  0
 25 26  1  0  0  0
 25 27  1  0  0  0
 28 29  2  0  0  0
M  END
>  <CHROM.0>
-84.02848750,-59.88050845,75.86926892,26.62305138

>  <CHROM.1>
-89.09439277,-144.55372217,-138.71106214,10.94356997,-138.19313499,93.59773639
-135.65085590,-115.88236848,139.25169623,126.40574501,68.48461291,35.58649982
74.76718977,-3.06317154,1.37067447,2.64410403

>  <FORMUL>
      OHT    C26 H29 N1 O2

>  <HET>
 OHT  A 600      29

>  <HETNAM>
     OHT 4-HYDROXYTAMOXIFEN

>  <Name>
OHT.pdb

>  <RI>
0

>  <Rbt.Current_Directory>
/home/malgorzata/Desktop/rDOCK_IFD/Wyniki/5b_estrogen_receptor

>  <Rbt.Executable>
rbdock ($Id: //depot/dev/client3/rdock/2013.1/src/exe/rbdock.cxx#4 $)

>  <Rbt.Library>
libRbt.so (2013.1, Build901 2013/11/27)

>  <Rbt.Parameter_File>
/home/malgorzata/Desktop/rDock_2013.1_src/data/scripts/soft_docking.prm

>  <Rbt.Receptor>
cavity.prm

>  <SCORE>
-82.5982

>  <SCORE.INTER>
-23.7533

>  <SCORE.INTER.CONST>
1

>  <SCORE.INTER.POLAR>
0

>  <SCORE.INTER.REPUL>
0.0442976

>  <SCORE.INTER.ROT>
9

>  <SCORE.INTER.VDW>
-38.3748

>  <SCORE.INTER.norm>
-0.819081

>  <SCORE.INTRA>
2.94854

>  <SCORE.INTRA.DIHEDRAL>
13.8666

>  <SCORE.INTRA.DIHEDRAL.0>
14.7815

>  <SCORE.INTRA.POLAR>
0

>  <SCORE.INTRA.POLAR.0>
0

>  <SCORE.INTRA.REPUL>
0

>  <SCORE.INTRA.REPUL.0>
0

>  <SCORE.INTRA.VDW>
0.175224

>  <SCORE.INTRA.VDW.0>
-0.0652974

>  <SCORE.INTRA.norm>
0.101674

>  <SCORE.RESTR>
0.0383311

>  <SCORE.RESTR.CAVITY>
0.0383311

>  <SCORE.RESTR.norm>
0.00132176

>  <SCORE.SYSTEM>
-61.8318

>  <SCORE.SYSTEM.CONST>
0

>  <SCORE.SYSTEM.DIHEDRAL>
1.88518

>  <SCORE.SYSTEM.POLAR>
-0.239979

>  <SCORE.SYSTEM.REPUL>
0.105337

>  <SCORE.SYSTEM.VDW>
-62.4851

>  <SCORE.SYSTEM.norm>
-2.13213

>  <SCORE.heavy>
29

>  <SCORE.norm>
-2.84821

$$$$
