OHT.pdb
 OpenBabel12152012163D

 60 62  0  0  1  0  0  0  0  0999 V2000
   30.5740    1.4650   29.5500 C   0  0  0  0  0  0  0  0  0  0  0  0
   30.7020   -0.0230   29.3720 C   0  0  0  0  0  0  0  0  0  0  0  0
   31.3630   -0.3880   28.0590 C   0  0  2  0  0  0  0  0  0  0  0  0
   32.7880    0.0530   27.9620 C   0  0  0  0  0  0  0  0  0  0  0  0
   33.2410    0.7820   26.8420 C   0  0  0  0  0  0  0  0  0  0  0  0
   34.5590    1.2350   26.7760 C   0  0  0  0  0  0  0  0  0  0  0  0
   35.4510    0.9800   27.7990 C   0  0  0  0  0  0  0  0  0  0  0  0
   35.0270    0.2700   28.8970 C   0  0  0  0  0  0  0  0  0  0  0  0
   33.7070   -0.1880   28.9760 C   0  0  0  0  0  0  0  0  0  0  0  0
   30.7080   -1.0570   27.0650 C   0  0  2  0  0  0  0  0  0  0  0  0
   29.2100   -1.2330   27.0160 C   0  0  0  0  0  0  0  0  0  0  0  0
   28.6090   -2.4900   26.6950 C   0  0  0  0  0  0  0  0  0  0  0  0
   27.2150   -2.6130   26.6050 C   0  0  0  0  0  0  0  0  0  0  0  0
   26.4090   -1.4820   26.8350 C   0  0  0  0  0  0  0  0  0  0  0  0
   25.0580   -1.6220   26.7220 O   0  0  0  0  0  0  0  0  0  0  0  0
   26.9920   -0.2350   27.1560 C   0  0  0  0  0  0  0  0  0  0  0  0
   28.3750   -0.1340   27.2390 C   0  0  0  0  0  0  0  0  0  0  0  0
   31.4110   -1.6900   25.9450 C   0  0  0  0  0  0  0  0  0  0  0  0
   32.5290   -2.4960   26.1460 C   0  0  0  0  0  0  0  0  0  0  0  0
   33.1820   -3.1140   25.1170 C   0  0  0  0  0  0  0  0  0  0  0  0
   32.7250   -2.9440   23.8200 C   0  0  0  0  0  0  0  0  0  0  0  0
   33.2960   -3.5540   22.7400 O   0  0  0  0  0  0  0  0  0  0  0  0
   32.9000   -3.1830   21.4230 C   0  0  0  0  0  0  0  0  0  0  0  0
   34.0590   -3.5080   20.5200 C   0  0  0  0  0  0  0  0  0  0  0  0
   34.1090   -4.8870   20.1180 N   0  0  0  0  0  0  0  0  0  0  0  0
   33.3900   -5.1110   18.8630 C   0  0  0  0  0  0  0  0  0  0  0  0
   35.5060   -5.2910   19.9220 C   0  0  0  0  0  0  0  0  0  0  0  0
   31.6010   -2.1350   23.5790 C   0  0  0  0  0  0  0  0  0  0  0  0
   30.9660   -1.5280   24.6260 C   0  0  0  0  0  0  0  0  0  0  0  0
   30.1032    1.6728   30.4881 H   0  0  0  0  0  0  0  0  0  0  0  0
   29.9815    1.8695   28.7562 H   0  0  0  0  0  0  0  0  0  0  0  0
   31.5463    1.9113   29.5324 H   0  0  0  0  0  0  0  0  0  0  0  0
   29.7250   -0.4584   29.3985 H   0  0  0  0  0  0  0  0  0  0  0  0
   31.3168   -0.3966   30.1640 H   0  0  0  0  0  0  0  0  0  0  0  0
   30.9432   -0.9079   27.2233 H   0  0  0  0  0  0  0  0  0  0  0  0
   32.5919    0.9818   26.0650 H   0  0  0  0  0  0  0  0  0  0  0  0
   34.8721    1.7688   25.9501 H   0  0  0  0  0  0  0  0  0  0  0  0
   36.4241    1.3184   27.7398 H   0  0  0  0  0  0  0  0  0  0  0  0
   35.6855    0.0737   29.6670 H   0  0  0  0  0  0  0  0  0  0  0  0
   33.4083   -0.7186   29.8092 H   0  0  0  0  0  0  0  0  0  0  0  0
   31.0806   -0.4058   27.8279 H   0  0  0  0  0  0  0  0  0  0  0  0
   29.2067   -3.3145   26.5280 H   0  0  0  0  0  0  0  0  0  0  0  0
   26.7850   -3.5220   26.3729 H   0  0  0  0  0  0  0  0  0  0  0  0
   24.6897   -2.4567   26.5084 H   0  0  0  0  0  0  0  0  0  0  0  0
   26.3971    0.5908   27.3267 H   0  0  0  0  0  0  0  0  0  0  0  0
   28.7981    0.7780   27.4719 H   0  0  0  0  0  0  0  0  0  0  0  0
   32.8772   -2.6315   27.1080 H   0  0  0  0  0  0  0  0  0  0  0  0
   34.0088   -3.7025   25.3043 H   0  0  0  0  0  0  0  0  0  0  0  0
   32.6831   -2.1360   21.3835 H   0  0  0  0  0  0  0  0  0  0  0  0
   32.0170   -3.7074   21.1226 H   0  0  0  0  0  0  0  0  0  0  0  0
   34.9661   -3.2737   21.0369 H   0  0  0  0  0  0  0  0  0  0  0  0
   33.9346   -2.9271   19.6301 H   0  0  0  0  0  0  0  0  0  0  0  0
   32.3664   -4.8228   18.9820 H   0  0  0  0  0  0  0  0  0  0  0  0
   33.4407   -6.1477   18.6030 H   0  0  0  0  0  0  0  0  0  0  0  0
   33.8372   -4.5262   18.0865 H   0  0  0  0  0  0  0  0  0  0  0  0
   36.0527   -5.1359   20.8286 H   0  0  0  0  0  0  0  0  0  0  0  0
   35.9402   -4.7051   19.1390 H   0  0  0  0  0  0  0  0  0  0  0  0
   35.5438   -6.3266   19.6555 H   0  0  0  0  0  0  0  0  0  0  0  0
   31.2567   -2.0000   22.6155 H   0  0  0  0  0  0  0  0  0  0  0  0
   30.1403   -0.9371   24.4412 H   0  0  0  0  0  0  0  0  0  0  0  0
  1  2  1  0  0  0  0
  1 30  1  0  0  0  0
  1 31  1  0  0  0  0
  1 32  1  0  0  0  0
  2  3  1  0  0  0  0
  2 33  1  0  0  0  0
  2 34  1  0  0  0  0
  3  4  1  0  0  0  0
  3 10  1  0  0  0  0
  3 35  1  1  0  0  0
  4  5  2  0  0  0  0
  4  9  1  0  0  0  0
  5  6  1  0  0  0  0
  5 36  1  0  0  0  0
  6  7  2  0  0  0  0
  6 37  1  0  0  0  0
  7  8  1  0  0  0  0
  7 38  1  0  0  0  0
  8  9  2  0  0  0  0
  8 39  1  0  0  0  0
  9 40  1  0  0  0  0
 10 11  1  0  0  0  0
 10 18  1  0  0  0  0
 10 41  1  6  0  0  0
 11 12  2  0  0  0  0
 11 17  1  0  0  0  0
 12 13  1  0  0  0  0
 12 42  1  0  0  0  0
 13 14  2  0  0  0  0
 13 43  1  0  0  0  0
 14 15  1  0  0  0  0
 14 16  1  0  0  0  0
 15 44  1  0  0  0  0
 16 17  2  0  0  0  0
 16 45  1  0  0  0  0
 17 46  1  0  0  0  0
 18 19  2  0  0  0  0
 18 29  1  0  0  0  0
 19 20  1  0  0  0  0
 19 47  1  0  0  0  0
 20 21  2  0  0  0  0
 20 48  1  0  0  0  0
 21 22  1  0  0  0  0
 21 28  1  0  0  0  0
 22 23  1  0  0  0  0
 23 24  1  0  0  0  0
 23 49  1  0  0  0  0
 23 50  1  0  0  0  0
 24 25  1  0  0  0  0
 24 51  1  0  0  0  0
 24 52  1  0  0  0  0
 25 26  1  0  0  0  0
 25 27  1  0  0  0  0
 26 53  1  0  0  0  0
 26 54  1  0  0  0  0
 26 55  1  0  0  0  0
 27 56  1  0  0  0  0
 27 57  1  0  0  0  0
 27 58  1  0  0  0  0
 28 29  2  0  0  0  0
 28 59  1  0  0  0  0
 29 60  1  0  0  0  0
M  END
>  <HET>
 OHT  A 600      29

>  <HETNAM>
     OHT 4-HYDROXYTAMOXIFEN

>  <FORMUL>
      OHT    C26 H29 N1 O2

$$$$
