612.pdb
  rDOCK(R)          3D
libRbt.so/2013.1/901 2013/11/27
 23 24  0  0  0  0  0  0  0  0999 V2000
   -2.6681  -34.7029   24.5208 C   0  0  0  0  0  0
   -2.8264  -34.3630   25.9954 C   0  0  0  0  0  0
   -4.2701  -34.1028   26.3364 C   0  0  0  0  0  0
   -4.8387  -32.9869   25.4653 C   0  0  0  0  0  0
   -4.6917  -33.3404   23.9910 C   0  0  0  0  0  0
   -3.2362  -33.5847   23.6579 C   0  0  0  0  0  0
   -0.8647  -34.7981   24.2374 S   0  0  0  0  0  0
   -0.1579  -36.0808   25.3838 C   0  0  0  0  0  0
   -0.1153  -37.4202   25.0225 C   0  0  0  0  0  0
   -0.3447  -37.9453   23.5928 C   0  0  0  0  0  0
    0.6609  -37.4597   22.5756 C   0  0  0  0  0  0
   -1.7615  -37.8575   23.1383 C   0  0  0  0  0  0
    0.3638  -38.4064   25.9761 C   0  0  0  0  0  0
    0.3824  -39.6105   25.7564 O   0  0  0  0  0  0
    0.2800  -35.6645   26.6552 N   0  0  0  0  0  0
    0.7698  -36.5789   27.6090 C   0  0  0  0  0  0
    1.1757  -36.2300   28.7158 O   0  0  0  0  0  0
    0.7745  -37.9088   27.2156 N   0  0  0  0  0  0
    0.3018  -34.2348   27.0556 C   0  0  0  0  0  0
   -0.5167  -33.9928   28.1945 O   0  0  0  0  0  0
   -1.2028  -32.7411   28.0950 C   0  0  0  0  0  0
   -1.6770  -32.2801   29.4511 C   0  0  0  0  0  0
    1.0987  -38.5657   27.8732 H   0  0  0  0  0  0
  1  2  1  0  0  0
  1  6  1  0  0  0
  1  7  1  0  0  0
  2  3  1  0  0  0
  3  4  1  0  0  0
  4  5  1  0  0  0
  5  6  1  0  0  0
  7  8  1  0  0  0
  8  9  2  0  0  0
  8 15  1  0  0  0
  9 10  1  0  0  0
  9 13  1  0  0  0
 10 11  1  0  0  0
 10 12  1  0  0  0
 13 14  2  0  0  0
 13 18  1  0  0  0
 15 16  1  0  0  0
 15 19  1  0  0  0
 16 17  2  0  0  0
 16 18  1  0  0  0
 18 23  1  0  0  0
 19 20  1  0  0  0
 20 21  1  0  0  0
 21 22  1  0  0  0
M  END
>  <CHROM.0>
-146.78086762,-167.75397202,-146.94527355

>  <CHROM.1>
57.84034045,87.03796721,62.15620711,120.29163058,-141.94074620,-160.86969910
-1.09383022,-35.50436201,25.79551112,2.53073706,-0.75436966,0.94058349

>  <FORMUL>
      612    C16 H26 N2 O3 S1

>  <HET>
 612  A 999      22

>  <HETNAM>
     612 6-(cyclohexylsulfanyl)-1-(ethoxymethyl)-5-(1-methylethy
   2 612 l)pyrimidine-2,4(1H,3H)-dione

>  <HETSYN>
     612 TNK-6123

>  <Name>
612.pdb

>  <RI>
4.71136e+07

>  <Rbt.Current_Directory>
/home/malgorzata/Desktop/rDOCK_IFD/Wyniki/9_hiv_rt

>  <Rbt.Executable>
rbdock ($Id: //depot/dev/client3/rdock/2013.1/src/exe/rbdock.cxx#4 $)

>  <Rbt.Library>
libRbt.so (2013.1, Build901 2013/11/27)

>  <Rbt.Parameter_File>
/home/malgorzata/Desktop/rDock_2013.1_src/data/scripts/soft_docking.prm

>  <Rbt.Receptor>
cavity.prm

>  <SCORE>
-28.2423

>  <SCORE.INTER>
-23.6507

>  <SCORE.INTER.CONST>
1

>  <SCORE.INTER.POLAR>
-0.493857

>  <SCORE.INTER.REPUL>
0

>  <SCORE.INTER.ROT>
6

>  <SCORE.INTER.VDW>
-33.3716

>  <SCORE.INTER.norm>
-1.07503

>  <SCORE.INTRA>
-0.0640333

>  <SCORE.INTRA.DIHEDRAL>
-0.1222

>  <SCORE.INTRA.DIHEDRAL.0>
11.8882

>  <SCORE.INTRA.POLAR>
0

>  <SCORE.INTRA.POLAR.0>
0

>  <SCORE.INTRA.REPUL>
0

>  <SCORE.INTRA.REPUL.0>
0

>  <SCORE.INTRA.VDW>
-0.0395934

>  <SCORE.INTRA.VDW.0>
-3.04122

>  <SCORE.INTRA.norm>
-0.00291061

>  <SCORE.RESTR>
0

>  <SCORE.RESTR.CAVITY>
0

>  <SCORE.RESTR.norm>
0

>  <SCORE.SYSTEM>
-4.52755

>  <SCORE.SYSTEM.CONST>
0

>  <SCORE.SYSTEM.DIHEDRAL>
2.82491

>  <SCORE.SYSTEM.POLAR>
-0.917939

>  <SCORE.SYSTEM.VDW>
-2.81902

>  <SCORE.SYSTEM.norm>
-0.205798

>  <SCORE.heavy>
22

>  <SCORE.norm>
-1.28374

$$$$
612.pdb
  rDOCK(R)          3D
libRbt.so/2013.1/901 2013/11/27
 23 24  0  0  0  0  0  0  0  0999 V2000
   -0.7653  -36.6352   24.1156 C   0  0  0  0  0  0
    0.6555  -37.0712   24.4419 C   0  0  0  0  0  0
    0.7887  -38.5698   24.3716 C   0  0  0  0  0  0
   -0.2077  -39.2454   25.3087 C   0  0  0  0  0  0
   -1.6289  -38.8173   24.9668 C   0  0  0  0  0  0
   -1.7535  -37.3120   25.0553 C   0  0  0  0  0  0
   -0.8025  -34.8347   24.4299 S   0  0  0  0  0  0
   -2.5782  -34.2834   24.4720 C   0  0  0  0  0  0
   -3.2659  -33.9896   23.3027 C   0  0  0  0  0  0
   -2.7787  -34.3578   21.8887 C   0  0  0  0  0  0
   -2.0658  -33.2435   21.1593 C   0  0  0  0  0  0
   -3.7974  -35.0699   21.0662 C   0  0  0  0  0  0
   -4.6243  -33.4791   23.3774 C   0  0  0  0  0  0
   -5.2791  -33.1451   22.3984 O   0  0  0  0  0  0
   -3.1905  -34.1148   25.7282 N   0  0  0  0  0  0
   -4.5114  -33.6399   25.8537 C   0  0  0  0  0  0
   -5.0683  -33.5067   26.9417 O   0  0  0  0  0  0
   -5.1542  -33.3376   24.6626 N   0  0  0  0  0  0
   -2.5059  -34.4721   26.9965 C   0  0  0  0  0  0
   -3.2559  -35.4152   27.7540 O   0  0  0  0  0  0
   -2.7461  -35.5487   29.0842 C   0  0  0  0  0  0
   -3.6020  -36.4905   29.8946 C   0  0  0  0  0  0
   -6.0727  -32.9897   24.7291 H   0  0  0  0  0  0
  1  2  1  0  0  0
  1  6  1  0  0  0
  1  7  1  0  0  0
  2  3  1  0  0  0
  3  4  1  0  0  0
  4  5  1  0  0  0
  5  6  1  0  0  0
  7  8  1  0  0  0
  8  9  2  0  0  0
  8 15  1  0  0  0
  9 10  1  0  0  0
  9 13  1  0  0  0
 10 11  1  0  0  0
 10 12  1  0  0  0
 13 14  2  0  0  0
 13 18  1  0  0  0
 15 16  1  0  0  0
 15 19  1  0  0  0
 16 17  2  0  0  0
 16 18  1  0  0  0
 18 23  1  0  0  0
 19 20  1  0  0  0
 20 21  1  0  0  0
 21 22  1  0  0  0
M  END
>  <CHROM.0>
161.71210827,9.52809197,-136.22142303

>  <CHROM.1>
-166.06229776,-83.69613486,-97.16303975,-122.92090359,-167.89680422,176.67574743
-2.56855903,-35.27458185,24.88494818,-0.78442205,0.76708270,-1.29841869

>  <FORMUL>
      612    C16 H26 N2 O3 S1

>  <HET>
 612  A 999      22

>  <HETNAM>
     612 6-(cyclohexylsulfanyl)-1-(ethoxymethyl)-5-(1-methylethy
   2 612 l)pyrimidine-2,4(1H,3H)-dione

>  <HETSYN>
     612 TNK-6123

>  <Name>
612.pdb

>  <RI>
4.71136e+07

>  <Rbt.Current_Directory>
/home/malgorzata/Desktop/rDOCK_IFD/Wyniki/9_hiv_rt

>  <Rbt.Executable>
rbdock ($Id: //depot/dev/client3/rdock/2013.1/src/exe/rbdock.cxx#4 $)

>  <Rbt.Library>
libRbt.so (2013.1, Build901 2013/11/27)

>  <Rbt.Parameter_File>
/home/malgorzata/Desktop/rDock_2013.1_src/data/scripts/soft_docking.prm

>  <Rbt.Receptor>
cavity.prm

>  <SCORE>
-27.0639

>  <SCORE.INTER>
-21.4657

>  <SCORE.INTER.CONST>
1

>  <SCORE.INTER.POLAR>
0

>  <SCORE.INTER.REPUL>
0

>  <SCORE.INTER.ROT>
6

>  <SCORE.INTER.VDW>
-32.8657

>  <SCORE.INTER.norm>
-0.975712

>  <SCORE.INTRA>
0.502339

>  <SCORE.INTRA.DIHEDRAL>
-5.74338

>  <SCORE.INTRA.DIHEDRAL.0>
11.8882

>  <SCORE.INTRA.POLAR>
0

>  <SCORE.INTRA.POLAR.0>
0

>  <SCORE.INTRA.REPUL>
0

>  <SCORE.INTRA.REPUL.0>
0

>  <SCORE.INTRA.VDW>
1.65101

>  <SCORE.INTRA.VDW.0>
-3.04122

>  <SCORE.INTRA.norm>
0.0228336

>  <SCORE.RESTR>
0.114523

>  <SCORE.RESTR.CAVITY>
0.114523

>  <SCORE.RESTR.norm>
0.00520558

>  <SCORE.SYSTEM>
-6.2151

>  <SCORE.SYSTEM.CONST>
0

>  <SCORE.SYSTEM.DIHEDRAL>
2.83141

>  <SCORE.SYSTEM.POLAR>
-1.38919

>  <SCORE.SYSTEM.VDW>
-2.90756

>  <SCORE.SYSTEM.norm>
-0.282504

>  <SCORE.heavy>
22

>  <SCORE.norm>
-1.23018

$$$$
612.pdb
  rDOCK(R)          3D
libRbt.so/2013.1/901 2013/11/27
 23 24  0  0  0  0  0  0  0  0999 V2000
   -0.0694  -36.8993   24.4413 C   0  0  0  0  0  0
    0.9570  -36.7479   25.5543 C   0  0  0  0  0  0
    0.9650  -37.9600   26.4484 C   0  0  0  0  0  0
   -0.4227  -38.2117   27.0299 C   0  0  0  0  0  0
   -1.4425  -38.3782   25.9108 C   0  0  0  0  0  0
   -1.4515  -37.1489   25.0289 C   0  0  0  0  0  0
   -0.0863  -35.2886   23.5769 S   0  0  0  0  0  0
   -1.7665  -34.5225   23.7971 C   0  0  0  0  0  0
   -2.6884  -34.5050   22.7597 C   0  0  0  0  0  0
   -2.5670  -35.3403   21.4713 C   0  0  0  0  0  0
   -2.5724  -36.8352   21.6882 C   0  0  0  0  0  0
   -1.5040  -34.8637   20.5415 C   0  0  0  0  0  0
   -3.9585  -33.8223   22.9390 C   0  0  0  0  0  0
   -4.8017  -33.7142   22.0581 O   0  0  0  0  0  0
   -2.0582  -33.9068   25.0289 N   0  0  0  0  0  0
   -3.2822  -33.2475   25.2591 C   0  0  0  0  0  0
   -3.5614  -32.7228   26.3353 O   0  0  0  0  0  0
   -4.1651  -33.2343   24.1897 N   0  0  0  0  0  0
   -1.1201  -33.9542   26.1790 C   0  0  0  0  0  0
   -1.0725  -32.7127   26.8732 O   0  0  0  0  0  0
   -1.0795  -32.9005   28.2916 C   0  0  0  0  0  0
    0.1823  -32.3529   28.9114 C   0  0  0  0  0  0
   -5.0200  -32.7653   24.3248 H   0  0  0  0  0  0
  1  2  1  0  0  0
  1  6  1  0  0  0
  1  7  1  0  0  0
  2  3  1  0  0  0
  3  4  1  0  0  0
  4  5  1  0  0  0
  5  6  1  0  0  0
  7  8  1  0  0  0
  8  9  2  0  0  0
  8 15  1  0  0  0
  9 10  1  0  0  0
  9 13  1  0  0  0
 10 11  1  0  0  0
 10 12  1  0  0  0
 13 14  2  0  0  0
 13 18  1  0  0  0
 15 16  1  0  0  0
 15 19  1  0  0  0
 16 17  2  0  0  0
 16 18  1  0  0  0
 18 23  1  0  0  0
 19 20  1  0  0  0
 20 21  1  0  0  0
 21 22  1  0  0  0
M  END
>  <CHROM.0>
176.58293003,-156.98010192,-28.80437579

>  <CHROM.1>
-115.81160680,-104.81609760,61.89635011,140.20926503,137.07783443,118.44269934
-1.62266244,-34.95672506,24.70972687,-0.69154825,0.88879889,-2.23172070

>  <FORMUL>
      612    C16 H26 N2 O3 S1

>  <HET>
 612  A 999      22

>  <HETNAM>
     612 6-(cyclohexylsulfanyl)-1-(ethoxymethyl)-5-(1-methylethy
   2 612 l)pyrimidine-2,4(1H,3H)-dione

>  <HETSYN>
     612 TNK-6123

>  <Name>
612.pdb

>  <RI>
4.71136e+07

>  <Rbt.Current_Directory>
/home/malgorzata/Desktop/rDOCK_IFD/Wyniki/9_hiv_rt

>  <Rbt.Executable>
rbdock ($Id: //depot/dev/client3/rdock/2013.1/src/exe/rbdock.cxx#4 $)

>  <Rbt.Library>
libRbt.so (2013.1, Build901 2013/11/27)

>  <Rbt.Parameter_File>
/home/malgorzata/Desktop/rDock_2013.1_src/data/scripts/soft_docking.prm

>  <Rbt.Receptor>
cavity.prm

>  <SCORE>
-25.3293

>  <SCORE.INTER>
-22.8621

>  <SCORE.INTER.CONST>
1

>  <SCORE.INTER.POLAR>
-0.129123

>  <SCORE.INTER.REPUL>
0

>  <SCORE.INTER.ROT>
6

>  <SCORE.INTER.VDW>
-33.8231

>  <SCORE.INTER.norm>
-1.03919

>  <SCORE.INTRA>
2.54442

>  <SCORE.INTRA.DIHEDRAL>
8.91393

>  <SCORE.INTRA.DIHEDRAL.0>
11.8882

>  <SCORE.INTRA.POLAR>
0

>  <SCORE.INTRA.POLAR.0>
0

>  <SCORE.INTRA.REPUL>
0

>  <SCORE.INTRA.REPUL.0>
0

>  <SCORE.INTRA.VDW>
0.761636

>  <SCORE.INTRA.VDW.0>
-3.04122

>  <SCORE.INTRA.norm>
0.115655

>  <SCORE.RESTR>
0

>  <SCORE.RESTR.CAVITY>
0

>  <SCORE.RESTR.norm>
0

>  <SCORE.SYSTEM>
-5.01157

>  <SCORE.SYSTEM.CONST>
0

>  <SCORE.SYSTEM.DIHEDRAL>
1.89111

>  <SCORE.SYSTEM.POLAR>
-0.96239

>  <SCORE.SYSTEM.VDW>
-2.685

>  <SCORE.SYSTEM.norm>
-0.227799

>  <SCORE.heavy>
22

>  <SCORE.norm>
-1.15133

$$$$
612.pdb
  rDOCK(R)          3D
libRbt.so/2013.1/901 2013/11/27
 23 24  0  0  0  0  0  0  0  0999 V2000
   -2.0565  -33.9163   24.9457 C   0  0  0  0  0  0
   -1.8792  -34.1917   23.4598 C   0  0  0  0  0  0
   -2.7809  -33.3095   22.6370 C   0  0  0  0  0  0
   -4.2388  -33.4954   23.0461 C   0  0  0  0  0  0
   -4.4125  -33.2028   24.5308 C   0  0  0  0  0  0
   -3.5129  -34.1050   25.3469 C   0  0  0  0  0  0
   -1.0495  -35.1833   25.7957 S   0  0  0  0  0  0
    0.6635  -34.5024   26.0425 C   0  0  0  0  0  0
    1.7794  -35.1797   25.5709 C   0  0  0  0  0  0
    1.7307  -36.3512   24.5721 C   0  0  0  0  0  0
    2.1851  -37.6771   25.1355 C   0  0  0  0  0  0
    2.3057  -36.0284   23.2355 C   0  0  0  0  0  0
    3.1071  -34.6629   25.8566 C   0  0  0  0  0  0
    4.1415  -35.2273   25.5247 O   0  0  0  0  0  0
    0.8031  -33.3077   26.7738 N   0  0  0  0  0  0
    2.0673  -32.7558   27.0618 C   0  0  0  0  0  0
    2.2064  -31.7027   27.6809 O   0  0  0  0  0  0
    3.1555  -33.4755   26.5917 N   0  0  0  0  0  0
   -0.3688  -32.5269   27.2449 C   0  0  0  0  0  0
   -0.8631  -33.0142   28.4874 O   0  0  0  0  0  0
   -2.2060  -32.5822   28.7271 C   0  0  0  0  0  0
   -2.2640  -31.6388   29.9031 C   0  0  0  0  0  0
    4.0486  -33.1149   26.7956 H   0  0  0  0  0  0
  1  2  1  0  0  0
  1  6  1  0  0  0
  1  7  1  0  0  0
  2  3  1  0  0  0
  3  4  1  0  0  0
  4  5  1  0  0  0
  5  6  1  0  0  0
  7  8  1  0  0  0
  8  9  2  0  0  0
  8 15  1  0  0  0
  9 10  1  0  0  0
  9 13  1  0  0  0
 10 11  1  0  0  0
 10 12  1  0  0  0
 13 14  2  0  0  0
 13 18  1  0  0  0
 15 16  1  0  0  0
 15 19  1  0  0  0
 16 17  2  0  0  0
 16 18  1  0  0  0
 18 23  1  0  0  0
 19 20  1  0  0  0
 20 21  1  0  0  0
 21 22  1  0  0  0
M  END
>  <CHROM.0>
154.04278456,-38.35305515,-168.63622196

>  <CHROM.1>
90.32161569,-124.50374297,-114.25335552,84.94886966,-160.91629295,-113.65607005
-0.11562269,-34.04839226,25.85408536,3.02800318,-0.26276022,0.99358793

>  <FORMUL>
      612    C16 H26 N2 O3 S1

>  <HET>
 612  A 999      22

>  <HETNAM>
     612 6-(cyclohexylsulfanyl)-1-(ethoxymethyl)-5-(1-methylethy
   2 612 l)pyrimidine-2,4(1H,3H)-dione

>  <HETSYN>
     612 TNK-6123

>  <Name>
612.pdb

>  <RI>
4.71136e+07

>  <Rbt.Current_Directory>
/home/malgorzata/Desktop/rDOCK_IFD/Wyniki/9_hiv_rt

>  <Rbt.Executable>
rbdock ($Id: //depot/dev/client3/rdock/2013.1/src/exe/rbdock.cxx#4 $)

>  <Rbt.Library>
libRbt.so (2013.1, Build901 2013/11/27)

>  <Rbt.Parameter_File>
/home/malgorzata/Desktop/rDock_2013.1_src/data/scripts/soft_docking.prm

>  <Rbt.Receptor>
cavity.prm

>  <SCORE>
-28.2724

>  <SCORE.INTER>
-23.9015

>  <SCORE.INTER.CONST>
1

>  <SCORE.INTER.POLAR>
0

>  <SCORE.INTER.REPUL>
0

>  <SCORE.INTER.ROT>
6

>  <SCORE.INTER.VDW>
-35.3015

>  <SCORE.INTER.norm>
-1.08643

>  <SCORE.INTRA>
1.14506

>  <SCORE.INTRA.DIHEDRAL>
2.88098

>  <SCORE.INTRA.DIHEDRAL.0>
11.8882

>  <SCORE.INTRA.POLAR>
0

>  <SCORE.INTRA.POLAR.0>
0

>  <SCORE.INTRA.REPUL>
0

>  <SCORE.INTRA.REPUL.0>
0

>  <SCORE.INTRA.VDW>
0.568862

>  <SCORE.INTRA.VDW.0>
-3.04122

>  <SCORE.INTRA.norm>
0.0520481

>  <SCORE.RESTR>
0

>  <SCORE.RESTR.CAVITY>
0

>  <SCORE.RESTR.norm>
0

>  <SCORE.SYSTEM>
-5.51596

>  <SCORE.SYSTEM.CONST>
0

>  <SCORE.SYSTEM.DIHEDRAL>
3.15036

>  <SCORE.SYSTEM.POLAR>
-1.22693

>  <SCORE.SYSTEM.VDW>
-2.91959

>  <SCORE.SYSTEM.norm>
-0.250725

>  <SCORE.heavy>
22

>  <SCORE.norm>
-1.28511

$$$$
612.pdb
  rDOCK(R)          3D
libRbt.so/2013.1/901 2013/11/27
 23 24  0  0  0  0  0  0  0  0999 V2000
   -2.1601  -35.1443   23.8424 C   0  0  0  0  0  0
   -2.3436  -33.6552   24.0951 C   0  0  0  0  0  0
   -3.7971  -33.3187   24.3012 C   0  0  0  0  0  0
   -4.6303  -33.7657   23.1040 C   0  0  0  0  0  0
   -4.4548  -35.2599   22.8662 C   0  0  0  0  0  0
   -2.9932  -35.5827   22.6459 C   0  0  0  0  0  0
   -0.3917  -35.3500   23.4274 S   0  0  0  0  0  0
    0.3602  -36.5430   24.6399 C   0  0  0  0  0  0
    0.4008  -37.9048   24.3749 C   0  0  0  0  0  0
    0.1297  -38.5330   22.9950 C   0  0  0  0  0  0
   -0.8251  -39.7035   23.0137 C   0  0  0  0  0  0
    1.3594  -38.7633   22.1850 C   0  0  0  0  0  0
    0.9170  -38.8172   25.3812 C   0  0  0  0  0  0
    0.9370  -40.0340   25.2484 O   0  0  0  0  0  0
    0.8355  -36.0338   25.8631 N   0  0  0  0  0  0
    1.3619  -36.8745   26.8641 C   0  0  0  0  0  0
    1.8003  -36.4446   27.9292 O   0  0  0  0  0  0
    1.3635  -38.2293   26.5677 N   0  0  0  0  0  0
    0.8600  -34.5788   26.1585 C   0  0  0  0  0  0
    1.8004  -33.8899   25.3419 O   0  0  0  0  0  0
    2.8799  -33.3568   26.1150 C   0  0  0  0  0  0
    3.5956  -32.2666   25.3565 C   0  0  0  0  0  0
    1.7130  -38.8355   27.2602 H   0  0  0  0  0  0
  1  2  1  0  0  0
  1  6  1  0  0  0
  1  7  1  0  0  0
  2  3  1  0  0  0
  3  4  1  0  0  0
  4  5  1  0  0  0
  5  6  1  0  0  0
  7  8  1  0  0  0
  8  9  2  0  0  0
  8 15  1  0  0  0
  9 10  1  0  0  0
  9 13  1  0  0  0
 10 11  1  0  0  0
 10 12  1  0  0  0
 13 14  2  0  0  0
 13 18  1  0  0  0
 15 16  1  0  0  0
 15 19  1  0  0  0
 16 17  2  0  0  0
 16 18  1  0  0  0
 18 23  1  0  0  0
 19 20  1  0  0  0
 20 21  1  0  0  0
 21 22  1  0  0  0
M  END
>  <CHROM.0>
146.47659327,-162.65345403,-117.58156863

>  <CHROM.1>
121.99603094,91.34705386,-132.22778427,-67.70470482,-113.78595531,-160.81386992
-0.11748422,-36.04044666,24.59934033,2.81856767,-0.52057776,0.18938223

>  <FORMUL>
      612    C16 H26 N2 O3 S1

>  <HET>
 612  A 999      22

>  <HETNAM>
     612 6-(cyclohexylsulfanyl)-1-(ethoxymethyl)-5-(1-methylethy
   2 612 l)pyrimidine-2,4(1H,3H)-dione

>  <HETSYN>
     612 TNK-6123

>  <Name>
612.pdb

>  <RI>
4.71136e+07

>  <Rbt.Current_Directory>
/home/malgorzata/Desktop/rDOCK_IFD/Wyniki/9_hiv_rt

>  <Rbt.Executable>
rbdock ($Id: //depot/dev/client3/rdock/2013.1/src/exe/rbdock.cxx#4 $)

>  <Rbt.Library>
libRbt.so (2013.1, Build901 2013/11/27)

>  <Rbt.Parameter_File>
/home/malgorzata/Desktop/rDock_2013.1_src/data/scripts/soft_docking.prm

>  <Rbt.Receptor>
cavity.prm

>  <SCORE>
-22.6108

>  <SCORE.INTER>
-19.7571

>  <SCORE.INTER.CONST>
1

>  <SCORE.INTER.POLAR>
-0.726683

>  <SCORE.INTER.REPUL>
0

>  <SCORE.INTER.ROT>
6

>  <SCORE.INTER.VDW>
-28.6864

>  <SCORE.INTER.norm>
-0.898049

>  <SCORE.INTRA>
1.63018

>  <SCORE.INTRA.DIHEDRAL>
4.27485

>  <SCORE.INTRA.DIHEDRAL.0>
11.8882

>  <SCORE.INTRA.POLAR>
0

>  <SCORE.INTRA.POLAR.0>
0

>  <SCORE.INTRA.REPUL>
0

>  <SCORE.INTRA.REPUL.0>
0

>  <SCORE.INTRA.VDW>
0.775206

>  <SCORE.INTRA.VDW.0>
-3.04122

>  <SCORE.INTRA.norm>
0.0740989

>  <SCORE.RESTR>
0.163297

>  <SCORE.RESTR.CAVITY>
0.163297

>  <SCORE.RESTR.norm>
0.00742258

>  <SCORE.SYSTEM>
-4.64724

>  <SCORE.SYSTEM.CONST>
0

>  <SCORE.SYSTEM.DIHEDRAL>
5.61138

>  <SCORE.SYSTEM.POLAR>
-1.31677

>  <SCORE.SYSTEM.VDW>
-2.97592

>  <SCORE.SYSTEM.norm>
-0.211238

>  <SCORE.heavy>
22

>  <SCORE.norm>
-1.02777

$$$$
612.pdb
  rDOCK(R)          3D
libRbt.so/2013.1/901 2013/11/27
 23 24  0  0  0  0  0  0  0  0999 V2000
   -1.0709  -34.2052   27.2551 C   0  0  0  0  0  0
   -1.7241  -33.2819   28.2730 C   0  0  0  0  0  0
   -0.6872  -32.4895   29.0250 C   0  0  0  0  0  0
    0.3123  -33.4181   29.7076 C   0  0  0  0  0  0
    0.9741  -34.3286   28.6814 C   0  0  0  0  0  0
   -0.0762  -35.1294   27.9435 C   0  0  0  0  0  0
   -2.4334  -35.2177   26.5767 S   0  0  0  0  0  0
   -2.4636  -34.9985   24.7301 C   0  0  0  0  0  0
   -3.4350  -34.2202   24.1160 C   0  0  0  0  0  0
   -4.3682  -33.2448   24.8577 C   0  0  0  0  0  0
   -3.6704  -32.3251   25.8319 C   0  0  0  0  0  0
   -5.6007  -33.8839   25.3998 C   0  0  0  0  0  0
   -3.4807  -34.1407   22.6658 C   0  0  0  0  0  0
   -4.3361  -33.5219   22.0462 O   0  0  0  0  0  0
   -1.5078  -35.6923   23.9643 N   0  0  0  0  0  0
   -1.4982  -35.6335   22.5564 C   0  0  0  0  0  0
   -0.6582  -36.2162   21.8734 O   0  0  0  0  0  0
   -2.4987  -34.8632   21.9829 N   0  0  0  0  0  0
   -0.4205  -36.4883   24.5882 C   0  0  0  0  0  0
    0.8134  -35.7789   24.5997 O   0  0  0  0  0  0
    1.5522  -36.0245   25.8001 C   0  0  0  0  0  0
    2.9354  -36.5369   25.4833 C   0  0  0  0  0  0
   -2.5190  -34.8213   20.9996 H   0  0  0  0  0  0
  1  2  1  0  0  0
  1  6  1  0  0  0
  1  7  1  0  0  0
  2  3  1  0  0  0
  3  4  1  0  0  0
  4  5  1  0  0  0
  5  6  1  0  0  0
  7  8  1  0  0  0
  8  9  2  0  0  0
  8 15  1  0  0  0
  9 10  1  0  0  0
  9 13  1  0  0  0
 10 11  1  0  0  0
 10 12  1  0  0  0
 13 14  2  0  0  0
 13 18  1  0  0  0
 15 16  1  0  0  0
 15 19  1  0  0  0
 16 17  2  0  0  0
 16 18  1  0  0  0
 18 23  1  0  0  0
 19 20  1  0  0  0
 20 21  1  0  0  0
 21 22  1  0  0  0
M  END
>  <CHROM.0>
152.28116691,0.49994418,-42.17336167

>  <CHROM.1>
123.28982283,-105.14867335,47.86484390,-100.32971226,142.60418775,124.54866561
-1.53544380,-34.66244730,25.41315601,0.84233226,-0.44041371,1.21069137

>  <FORMUL>
      612    C16 H26 N2 O3 S1

>  <HET>
 612  A 999      22

>  <HETNAM>
     612 6-(cyclohexylsulfanyl)-1-(ethoxymethyl)-5-(1-methylethy
   2 612 l)pyrimidine-2,4(1H,3H)-dione

>  <HETSYN>
     612 TNK-6123

>  <Name>
612.pdb

>  <RI>
4.71136e+07

>  <Rbt.Current_Directory>
/home/malgorzata/Desktop/rDOCK_IFD/Wyniki/9_hiv_rt

>  <Rbt.Executable>
rbdock ($Id: //depot/dev/client3/rdock/2013.1/src/exe/rbdock.cxx#4 $)

>  <Rbt.Library>
libRbt.so (2013.1, Build901 2013/11/27)

>  <Rbt.Parameter_File>
/home/malgorzata/Desktop/rDock_2013.1_src/data/scripts/soft_docking.prm

>  <Rbt.Receptor>
cavity.prm

>  <SCORE>
-24.6626

>  <SCORE.INTER>
-24.3028

>  <SCORE.INTER.CONST>
1

>  <SCORE.INTER.POLAR>
-0.605618

>  <SCORE.INTER.REPUL>
0.00267203

>  <SCORE.INTER.ROT>
6

>  <SCORE.INTER.VDW>
-33.6571

>  <SCORE.INTER.norm>
-1.10467

>  <SCORE.INTRA>
3.9366

>  <SCORE.INTRA.DIHEDRAL>
7.8345

>  <SCORE.INTRA.DIHEDRAL.0>
11.8882

>  <SCORE.INTRA.POLAR>
0

>  <SCORE.INTRA.POLAR.0>
0

>  <SCORE.INTRA.REPUL>
0

>  <SCORE.INTRA.REPUL.0>
0

>  <SCORE.INTRA.VDW>
2.3697

>  <SCORE.INTRA.VDW.0>
-3.04122

>  <SCORE.INTRA.norm>
0.178936

>  <SCORE.RESTR>
0

>  <SCORE.RESTR.CAVITY>
0

>  <SCORE.RESTR.norm>
0

>  <SCORE.SYSTEM>
-4.29637

>  <SCORE.SYSTEM.CONST>
0

>  <SCORE.SYSTEM.DIHEDRAL>
3.42447

>  <SCORE.SYSTEM.POLAR>
-0.927194

>  <SCORE.SYSTEM.VDW>
-2.85614

>  <SCORE.SYSTEM.norm>
-0.195289

>  <SCORE.heavy>
22

>  <SCORE.norm>
-1.12103

$$$$
612.pdb
  rDOCK(R)          3D
libRbt.so/2013.1/901 2013/11/27
 23 24  0  0  0  0  0  0  0  0999 V2000
   -0.3906  -36.8025   24.8784 C   0  0  0  0  0  0
    1.1255  -36.7810   24.7514 C   0  0  0  0  0  0
    1.6141  -37.9467   23.9323 C   0  0  0  0  0  0
    1.1457  -39.2665   24.5374 C   0  0  0  0  0  0
   -0.3733  -39.2881   24.6471 C   0  0  0  0  0  0
   -0.8504  -38.1214   25.4840 C   0  0  0  0  0  0
   -0.7972  -35.4537   26.0434 S   0  0  0  0  0  0
   -2.2453  -34.5066   25.3616 C   0  0  0  0  0  0
   -2.3684  -34.2664   24.0002 C   0  0  0  0  0  0
   -1.5402  -34.9745   22.9115 C   0  0  0  0  0  0
   -0.4899  -34.1081   22.2574 C   0  0  0  0  0  0
   -2.3590  -35.7682   21.9518 C   0  0  0  0  0  0
   -3.4662  -33.4495   23.5113 C   0  0  0  0  0  0
   -3.6153  -33.1458   22.3348 O   0  0  0  0  0  0
   -3.1857  -33.9876   26.2714 N   0  0  0  0  0  0
   -4.2778  -33.2049   25.8464 C   0  0  0  0  0  0
   -5.1197  -32.7615   26.6250 O   0  0  0  0  0  0
   -4.3507  -32.9706   24.4814 N   0  0  0  0  0  0
   -3.1179  -34.2709   27.7275 C   0  0  0  0  0  0
   -2.7171  -33.1250   28.4703 O   0  0  0  0  0  0
   -1.3247  -33.1684   28.7972 C   0  0  0  0  0  0
   -0.9518  -32.0249   29.7080 C   0  0  0  0  0  0
   -5.0979  -32.4130   24.1653 H   0  0  0  0  0  0
  1  2  1  0  0  0
  1  6  1  0  0  0
  1  7  1  0  0  0
  2  3  1  0  0  0
  3  4  1  0  0  0
  4  5  1  0  0  0
  5  6  1  0  0  0
  7  8  1  0  0  0
  8  9  2  0  0  0
  8 15  1  0  0  0
  9 10  1  0  0  0
  9 13  1  0  0  0
 10 11  1  0  0  0
 10 12  1  0  0  0
 13 14  2  0  0  0
 13 18  1  0  0  0
 15 16  1  0  0  0
 15 19  1  0  0  0
 16 17  2  0  0  0
 16 18  1  0  0  0
 18 23  1  0  0  0
 19 20  1  0  0  0
 20 21  1  0  0  0
 21 22  1  0  0  0
M  END
>  <CHROM.0>
156.93329440,151.84060131,-147.56999411

>  <CHROM.1>
135.67025022,-37.95582195,-107.61483754,108.42430544,-99.15954974,-173.88463739
-1.76190069,-34.96827941,25.27572910,-0.66240402,-0.81576303,1.27385845

>  <FORMUL>
      612    C16 H26 N2 O3 S1

>  <HET>
 612  A 999      22

>  <HETNAM>
     612 6-(cyclohexylsulfanyl)-1-(ethoxymethyl)-5-(1-methylethy
   2 612 l)pyrimidine-2,4(1H,3H)-dione

>  <HETSYN>
     612 TNK-6123

>  <Name>
612.pdb

>  <RI>
4.71136e+07

>  <Rbt.Current_Directory>
/home/malgorzata/Desktop/rDOCK_IFD/Wyniki/9_hiv_rt

>  <Rbt.Executable>
rbdock ($Id: //depot/dev/client3/rdock/2013.1/src/exe/rbdock.cxx#4 $)

>  <Rbt.Library>
libRbt.so (2013.1, Build901 2013/11/27)

>  <Rbt.Parameter_File>
/home/malgorzata/Desktop/rDock_2013.1_src/data/scripts/soft_docking.prm

>  <Rbt.Receptor>
cavity.prm

>  <SCORE>
-27.1122

>  <SCORE.INTER>
-22.0717

>  <SCORE.INTER.CONST>
1

>  <SCORE.INTER.POLAR>
-0.340532

>  <SCORE.INTER.REPUL>
0

>  <SCORE.INTER.ROT>
6

>  <SCORE.INTER.VDW>
-32.3139

>  <SCORE.INTER.norm>
-1.00326

>  <SCORE.INTRA>
0.909112

>  <SCORE.INTRA.DIHEDRAL>
0.360941

>  <SCORE.INTRA.DIHEDRAL.0>
11.8882

>  <SCORE.INTRA.POLAR>
0

>  <SCORE.INTRA.POLAR.0>
0

>  <SCORE.INTRA.REPUL>
0

>  <SCORE.INTRA.REPUL.0>
0

>  <SCORE.INTRA.VDW>
0.836924

>  <SCORE.INTRA.VDW.0>
-3.04122

>  <SCORE.INTRA.norm>
0.0413233

>  <SCORE.RESTR>
0.236714

>  <SCORE.RESTR.CAVITY>
0.236714

>  <SCORE.RESTR.norm>
0.0107597

>  <SCORE.SYSTEM>
-6.18626

>  <SCORE.SYSTEM.CONST>
0

>  <SCORE.SYSTEM.DIHEDRAL>
3.29754

>  <SCORE.SYSTEM.POLAR>
-1.3655

>  <SCORE.SYSTEM.VDW>
-3.19232

>  <SCORE.SYSTEM.norm>
-0.281194

>  <SCORE.heavy>
22

>  <SCORE.norm>
-1.23237

$$$$
612.pdb
  rDOCK(R)          3D
libRbt.so/2013.1/901 2013/11/27
 23 24  0  0  0  0  0  0  0  0999 V2000
   -0.0846  -35.8531   26.2104 C   0  0  0  0  0  0
    0.7810  -36.4836   27.2912 C   0  0  0  0  0  0
    1.0309  -37.9401   27.0000 C   0  0  0  0  0  0
   -0.2863  -38.6967   26.8592 C   0  0  0  0  0  0
   -1.1413  -38.0705   25.7651 C   0  0  0  0  0  0
   -1.3974  -36.6123   26.0766 C   0  0  0  0  0  0
   -0.4473  -34.1633   26.8061 S   0  0  0  0  0  0
   -2.2268  -33.7774   26.4277 C   0  0  0  0  0  0
   -3.1793  -33.7244   27.4358 C   0  0  0  0  0  0
   -2.8543  -33.6722   28.9404 C   0  0  0  0  0  0
   -2.0314  -32.4786   29.3649 C   0  0  0  0  0  0
   -2.3794  -34.9693   29.5002 C   0  0  0  0  0  0
   -4.5748  -33.5059   27.0946 C   0  0  0  0  0  0
   -5.4819  -33.4997   27.9166 O   0  0  0  0  0  0
   -2.5944  -33.5980   25.0807 N   0  0  0  0  0  0
   -3.9309  -33.3655   24.6995 C   0  0  0  0  0  0
   -4.2661  -33.1859   23.5303 O   0  0  0  0  0  0
   -4.8531  -33.3423   25.7351 N   0  0  0  0  0  0
   -1.5955  -33.5919   23.9820 C   0  0  0  0  0  0
   -1.9330  -34.5191   22.9563 O   0  0  0  0  0  0
   -1.1633  -35.7210   23.0571 C   0  0  0  0  0  0
   -1.1137  -36.4390   21.7311 C   0  0  0  0  0  0
   -5.7949  -33.1965   25.4884 H   0  0  0  0  0  0
  1  2  1  0  0  0
  1  6  1  0  0  0
  1  7  1  0  0  0
  2  3  1  0  0  0
  3  4  1  0  0  0
  4  5  1  0  0  0
  5  6  1  0  0  0
  7  8  1  0  0  0
  8  9  2  0  0  0
  8 15  1  0  0  0
  9 10  1  0  0  0
  9 13  1  0  0  0
 10 11  1  0  0  0
 10 12  1  0  0  0
 13 14  2  0  0  0
 13 18  1  0  0  0
 15 16  1  0  0  0
 15 19  1  0  0  0
 16 17  2  0  0  0
 16 18  1  0  0  0
 18 23  1  0  0  0
 19 20  1  0  0  0
 20 21  1  0  0  0
 21 22  1  0  0  0
M  END
>  <CHROM.0>
-175.46033603,-114.73352594,-109.71413779

>  <CHROM.1>
-139.07583172,107.56567150,59.96369464,126.80589545,-101.32003548,-157.81915327
-1.99939354,-34.83835539,26.07211071,-0.36724641,-0.76824021,1.47970790

>  <FORMUL>
      612    C16 H26 N2 O3 S1

>  <HET>
 612  A 999      22

>  <HETNAM>
     612 6-(cyclohexylsulfanyl)-1-(ethoxymethyl)-5-(1-methylethy
   2 612 l)pyrimidine-2,4(1H,3H)-dione

>  <HETSYN>
     612 TNK-6123

>  <Name>
612.pdb

>  <RI>
4.71136e+07

>  <Rbt.Current_Directory>
/home/malgorzata/Desktop/rDOCK_IFD/Wyniki/9_hiv_rt

>  <Rbt.Executable>
rbdock ($Id: //depot/dev/client3/rdock/2013.1/src/exe/rbdock.cxx#4 $)

>  <Rbt.Library>
libRbt.so (2013.1, Build901 2013/11/27)

>  <Rbt.Parameter_File>
/home/malgorzata/Desktop/rDock_2013.1_src/data/scripts/soft_docking.prm

>  <Rbt.Receptor>
cavity.prm

>  <SCORE>
-23.3423

>  <SCORE.INTER>
-20.9953

>  <SCORE.INTER.CONST>
1

>  <SCORE.INTER.POLAR>
-0.0300643

>  <SCORE.INTER.REPUL>
0

>  <SCORE.INTER.ROT>
6

>  <SCORE.INTER.VDW>
-32.2931

>  <SCORE.INTER.norm>
-0.954332

>  <SCORE.INTRA>
0.225972

>  <SCORE.INTRA.DIHEDRAL>
2.85239

>  <SCORE.INTRA.DIHEDRAL.0>
11.8882

>  <SCORE.INTRA.POLAR>
0

>  <SCORE.INTRA.POLAR.0>
0

>  <SCORE.INTRA.REPUL>
0

>  <SCORE.INTRA.REPUL.0>
0

>  <SCORE.INTRA.VDW>
-0.344505

>  <SCORE.INTRA.VDW.0>
-3.04122

>  <SCORE.INTRA.norm>
0.0102715

>  <SCORE.RESTR>
0

>  <SCORE.RESTR.CAVITY>
0

>  <SCORE.RESTR.norm>
0

>  <SCORE.SYSTEM>
-2.57298

>  <SCORE.SYSTEM.CONST>
0

>  <SCORE.SYSTEM.DIHEDRAL>
8.04691

>  <SCORE.SYSTEM.POLAR>
-1.20426

>  <SCORE.SYSTEM.VDW>
-2.50196

>  <SCORE.SYSTEM.norm>
-0.116954

>  <SCORE.heavy>
22

>  <SCORE.norm>
-1.06101

$$$$
612.pdb
  rDOCK(R)          3D
libRbt.so/2013.1/901 2013/11/27
 23 24  0  0  0  0  0  0  0  0999 V2000
   -0.5897  -33.9652   27.0064 C   0  0  0  0  0  0
   -0.9122  -33.8992   28.4919 C   0  0  0  0  0  0
   -0.2353  -32.7191   29.1383 C   0  0  0  0  0  0
    1.2734  -32.7750   28.9195 C   0  0  0  0  0  0
    1.5901  -32.8249   27.4304 C   0  0  0  0  0  0
    0.9170  -34.0221   26.7959 C   0  0  0  0  0  0
   -1.3190  -35.5367   26.4229 S   0  0  0  0  0  0
   -1.4198  -35.4827   24.5666 C   0  0  0  0  0  0
   -0.7331  -36.4004   23.7840 C   0  0  0  0  0  0
   -0.0896  -37.6935   24.3188 C   0  0  0  0  0  0
    1.3885  -37.8240   24.0357 C   0  0  0  0  0  0
   -0.8767  -38.9248   24.0257 C   0  0  0  0  0  0
   -0.7649  -36.2761   22.3365 C   0  0  0  0  0  0
   -0.1441  -37.0095   21.5781 O   0  0  0  0  0  0
   -2.1661  -34.4471   23.9730 N   0  0  0  0  0  0
   -2.2434  -34.2940   22.5743 C   0  0  0  0  0  0
   -2.9072  -33.4083   22.0392 O   0  0  0  0  0  0
   -1.5250  -35.2183   21.8306 N   0  0  0  0  0  0
   -2.9585  -33.4820   24.7764 C   0  0  0  0  0  0
   -4.1845  -34.0492   25.2246 O   0  0  0  0  0  0
   -5.0813  -33.0478   25.7148 C   0  0  0  0  0  0
   -6.0676  -33.6420   26.6896 C   0  0  0  0  0  0
   -1.5533  -35.1195   20.8515 H   0  0  0  0  0  0
  1  2  1  0  0  0
  1  6  1  0  0  0
  1  7  1  0  0  0
  2  3  1  0  0  0
  3  4  1  0  0  0
  4  5  1  0  0  0
  5  6  1  0  0  0
  7  8  1  0  0  0
  8  9  2  0  0  0
  8 15  1  0  0  0
  9 10  1  0  0  0
  9 13  1  0  0  0
 10 11  1  0  0  0
 10 12  1  0  0  0
 13 14  2  0  0  0
 13 18  1  0  0  0
 15 16  1  0  0  0
 15 19  1  0  0  0
 16 17  2  0  0  0
 16 18  1  0  0  0
 18 23  1  0  0  0
 19 20  1  0  0  0
 20 21  1  0  0  0
 21 22  1  0  0  0
M  END
>  <CHROM.0>
156.81473292,-172.21373734,-151.46672554

>  <CHROM.1>
163.68046661,118.53570214,-123.28181601,-77.72929373,-166.10125533,-155.79966786
-1.35249678,-34.89178456,25.13747956,-1.55191410,0.43149910,-2.13584719

>  <FORMUL>
      612    C16 H26 N2 O3 S1

>  <HET>
 612  A 999      22

>  <HETNAM>
     612 6-(cyclohexylsulfanyl)-1-(ethoxymethyl)-5-(1-methylethy
   2 612 l)pyrimidine-2,4(1H,3H)-dione

>  <HETSYN>
     612 TNK-6123

>  <Name>
612.pdb

>  <RI>
4.71136e+07

>  <Rbt.Current_Directory>
/home/malgorzata/Desktop/rDOCK_IFD/Wyniki/9_hiv_rt

>  <Rbt.Executable>
rbdock ($Id: //depot/dev/client3/rdock/2013.1/src/exe/rbdock.cxx#4 $)

>  <Rbt.Library>
libRbt.so (2013.1, Build901 2013/11/27)

>  <Rbt.Parameter_File>
/home/malgorzata/Desktop/rDock_2013.1_src/data/scripts/soft_docking.prm

>  <Rbt.Receptor>
cavity.prm

>  <SCORE>
-35.2463

>  <SCORE.INTER>
-28.4664

>  <SCORE.INTER.CONST>
1

>  <SCORE.INTER.POLAR>
-0.815665

>  <SCORE.INTER.REPUL>
0.0733694

>  <SCORE.INTER.ROT>
6

>  <SCORE.INTER.VDW>
-37.46

>  <SCORE.INTER.norm>
-1.29393

>  <SCORE.INTRA>
-0.0207141

>  <SCORE.INTRA.DIHEDRAL>
-2.81453

>  <SCORE.INTRA.DIHEDRAL.0>
11.8882

>  <SCORE.INTRA.POLAR>
0

>  <SCORE.INTRA.POLAR.0>
0

>  <SCORE.INTRA.REPUL>
0

>  <SCORE.INTRA.REPUL.0>
0

>  <SCORE.INTRA.VDW>
0.542193

>  <SCORE.INTRA.VDW.0>
-3.04122

>  <SCORE.INTRA.norm>
-0.000941549

>  <SCORE.RESTR>
0

>  <SCORE.RESTR.CAVITY>
0

>  <SCORE.RESTR.norm>
0

>  <SCORE.SYSTEM>
-6.75921

>  <SCORE.SYSTEM.CONST>
0

>  <SCORE.SYSTEM.DIHEDRAL>
1.90042

>  <SCORE.SYSTEM.POLAR>
-1.35394

>  <SCORE.SYSTEM.VDW>
-3.10603

>  <SCORE.SYSTEM.norm>
-0.307237

>  <SCORE.heavy>
22

>  <SCORE.norm>
-1.60211

$$$$
612.pdb
  rDOCK(R)          3D
libRbt.so/2013.1/901 2013/11/27
 23 24  0  0  0  0  0  0  0  0999 V2000
   -0.2435  -33.6834   26.2027 C   0  0  0  0  0  0
   -0.8037  -33.3845   27.5854 C   0  0  0  0  0  0
   -0.0330  -32.2746   28.2506 C   0  0  0  0  0  0
    1.4498  -32.6227   28.3370 C   0  0  0  0  0  0
    2.0083  -32.9053   26.9483 C   0  0  0  0  0  0
    1.2357  -34.0312   26.2969 C   0  0  0  0  0  0
   -1.1528  -35.1590   25.6214 S   0  0  0  0  0  0
   -2.0408  -34.7183   24.0478 C   0  0  0  0  0  0
   -3.3199  -34.1801   24.0727 C   0  0  0  0  0  0
   -4.0062  -33.6211   25.3332 C   0  0  0  0  0  0
   -3.4367  -32.3139   25.8320 C   0  0  0  0  0  0
   -4.2249  -34.6371   26.4016 C   0  0  0  0  0  0
   -4.0175  -33.9282   22.8232 C   0  0  0  0  0  0
   -5.1652  -33.5071   22.7590 O   0  0  0  0  0  0
   -1.4029  -35.0006   22.8252 N   0  0  0  0  0  0
   -2.0293  -34.7579   21.5864 C   0  0  0  0  0  0
   -1.4788  -34.9789   20.5096 O   0  0  0  0  0  0
   -3.3143  -34.2409   21.6568 N   0  0  0  0  0  0
   -0.0146  -35.5234   22.7591 C   0  0  0  0  0  0
    0.0340  -36.8204   22.1751 O   0  0  0  0  0  0
    0.8057  -36.8281   20.9703 C   0  0  0  0  0  0
    1.0094  -38.2377   20.4728 C   0  0  0  0  0  0
   -3.7756  -34.0785   20.8024 H   0  0  0  0  0  0
  1  2  1  0  0  0
  1  6  1  0  0  0
  1  7  1  0  0  0
  2  3  1  0  0  0
  3  4  1  0  0  0
  4  5  1  0  0  0
  5  6  1  0  0  0
  7  8  1  0  0  0
  8  9  2  0  0  0
  8 15  1  0  0  0
  9 10  1  0  0  0
  9 13  1  0  0  0
 10 11  1  0  0  0
 10 12  1  0  0  0
 13 14  2  0  0  0
 13 18  1  0  0  0
 15 16  1  0  0  0
 15 19  1  0  0  0
 16 17  2  0  0  0
 16 18  1  0  0  0
 18 23  1  0  0  0
 19 20  1  0  0  0
 20 21  1  0  0  0
 21 22  1  0  0  0
M  END
>  <CHROM.0>
177.46069145,157.93452873,-128.94320807

>  <CHROM.1>
120.39994792,-88.35885589,71.19863211,117.01560887,118.11436548,171.97951818
-1.34705116,-34.48830191,24.28786806,-1.43525245,0.28106415,-2.04544456

>  <FORMUL>
      612    C16 H26 N2 O3 S1

>  <HET>
 612  A 999      22

>  <HETNAM>
     612 6-(cyclohexylsulfanyl)-1-(ethoxymethyl)-5-(1-methylethy
   2 612 l)pyrimidine-2,4(1H,3H)-dione

>  <HETSYN>
     612 TNK-6123

>  <Name>
612.pdb

>  <RI>
4.71136e+07

>  <Rbt.Current_Directory>
/home/malgorzata/Desktop/rDOCK_IFD/Wyniki/9_hiv_rt

>  <Rbt.Executable>
rbdock ($Id: //depot/dev/client3/rdock/2013.1/src/exe/rbdock.cxx#4 $)

>  <Rbt.Library>
libRbt.so (2013.1, Build901 2013/11/27)

>  <Rbt.Parameter_File>
/home/malgorzata/Desktop/rDock_2013.1_src/data/scripts/soft_docking.prm

>  <Rbt.Receptor>
cavity.prm

>  <SCORE>
-26.7233

>  <SCORE.INTER>
-21.9155

>  <SCORE.INTER.CONST>
1

>  <SCORE.INTER.POLAR>
-0.273001

>  <SCORE.INTER.REPUL>
0.617727

>  <SCORE.INTER.ROT>
6

>  <SCORE.INTER.VDW>
-35.4759

>  <SCORE.INTER.norm>
-0.996159

>  <SCORE.INTRA>
1.04924

>  <SCORE.INTRA.DIHEDRAL>
3.34103

>  <SCORE.INTRA.DIHEDRAL.0>
11.8882

>  <SCORE.INTRA.POLAR>
0

>  <SCORE.INTRA.POLAR.0>
0

>  <SCORE.INTRA.REPUL>
0

>  <SCORE.INTRA.REPUL.0>
0

>  <SCORE.INTRA.VDW>
0.381034

>  <SCORE.INTRA.VDW.0>
-3.04122

>  <SCORE.INTRA.norm>
0.0476927

>  <SCORE.RESTR>
0

>  <SCORE.RESTR.CAVITY>
0

>  <SCORE.RESTR.norm>
0

>  <SCORE.SYSTEM>
-5.85702

>  <SCORE.SYSTEM.CONST>
0

>  <SCORE.SYSTEM.DIHEDRAL>
3.59728

>  <SCORE.SYSTEM.POLAR>
-1.32889

>  <SCORE.SYSTEM.VDW>
-3.13743

>  <SCORE.SYSTEM.norm>
-0.266228

>  <SCORE.heavy>
22

>  <SCORE.norm>
-1.21469

$$$$
