@<TRIPOS>MOLECULE
pose9.pdb
 48 49 0 0 0
SMALL
GASTEIGER

@<TRIPOS>ATOM
      1  C1        -0.2430  -33.6830   26.2030 C.3     1  LIG1        0.0112
      2  C2        -0.8040  -33.3850   27.5850 C.3     1  LIG1       -0.0408
      3  C3        -0.0330  -32.2750   28.2510 C.3     1  LIG1       -0.0521
      4  C4         1.4500  -32.6230   28.3370 C.3     1  LIG1       -0.0530
      5  C5         2.0080  -32.9050   26.9480 C.3     1  LIG1       -0.0521
      6  C6         1.2360  -34.0310   26.2970 C.3     1  LIG1       -0.0408
      7  S1        -1.1530  -35.1590   25.6210 S.3     1  LIG1       -0.1036
      8  C7        -2.0410  -34.7180   24.0480 C.ar    1  LIG1        0.0909
      9  C8        -3.3200  -34.1800   24.0730 C.ar    1  LIG1        0.0497
     10  C9        -4.0060  -33.6210   25.3330 C.3     1  LIG1       -0.0139
     11  C10       -3.4370  -32.3140   25.8320 C.3     1  LIG1       -0.0584
     12  C11       -4.2250  -34.6370   26.4020 C.3     1  LIG1       -0.0584
     13  C12       -4.0180  -33.9280   22.8230 C.ar    1  LIG1        0.2585
     14  O1        -5.1650  -33.5070   22.7590 O.2     1  LIG1       -0.2674
     15  N1        -1.4030  -35.0010   22.8250 N.ar    1  LIG1       -0.2642
     16  C13       -2.0290  -34.7580   21.5860 C.ar    1  LIG1        0.3319
     17  O2        -1.4790  -34.9790   20.5100 O.2     1  LIG1       -0.2464
     18  N2        -3.3140  -34.2410   21.6570 N.ar    1  LIG1       -0.2746
     19  C14       -0.0150  -35.5230   22.7590 C.3     1  LIG1        0.1292
     20  O3         0.0340  -36.8200   22.1750 O.3     1  LIG1       -0.3594
     21  C15        0.8060  -36.8280   20.9700 C.3     1  LIG1        0.0471
     22  C16        1.0090  -38.2380   20.4730 C.3     1  LIG1       -0.0415
     23  H1        -3.7760  -34.0780   20.8020 H       1  LIG1        0.1734
     24 H          -0.3484  -32.8421   25.5498 H       1  LIG1        0.0416
     25 H          -0.7387  -34.2671   28.1872 H       1  LIG1        0.0276
     26 H          -1.8237  -33.0779   27.4808 H       1  LIG1        0.0276
     27 H          -0.4162  -32.1250   29.2387 H       1  LIG1        0.0266
     28 H          -0.1435  -31.3834   27.6699 H       1  LIG1        0.0266
     29 H           1.5739  -33.4911   28.9502 H       1  LIG1        0.0265
     30 H           1.9777  -31.7953   28.7628 H       1  LIG1        0.0265
     31 H           3.0380  -33.1831   27.0300 H       1  LIG1        0.0266
     32 H           1.9157  -32.0240   26.3478 H       1  LIG1        0.0266
     33 H           1.6211  -34.1982   25.3128 H       1  LIG1        0.0276
     34 H           1.3454  -34.9133   26.8924 H       1  LIG1        0.0276
     35 H          -4.9888  -33.3604   24.9997 H       1  LIG1        0.0346
     36 H          -2.4418  -32.4724   26.1916 H       1  LIG1        0.0235
     37 H          -4.0479  -31.9392   26.6265 H       1  LIG1        0.0235
     38 H          -3.4182  -31.6044   25.0314 H       1  LIG1        0.0235
     39 H          -3.2803  -34.9533   26.7924 H       1  LIG1        0.0235
     40 H          -4.7420  -35.4797   25.9927 H       1  LIG1        0.0235
     41 H          -4.8099  -34.2072   27.1881 H       1  LIG1        0.0235
     42 H           0.3834  -35.5743   23.7507 H       1  LIG1        0.0802
     43 H           0.5611  -34.8605   22.1473 H       1  LIG1        0.0802
     44 H           1.7600  -36.3829   21.1616 H       1  LIG1        0.0558
     45 H           0.2795  -36.2731   20.2218 H       1  LIG1        0.0558
     46 H           1.5350  -38.8046   21.2127 H       1  LIG1        0.0252
     47 H           1.5783  -38.2184   19.5672 H       1  LIG1        0.0252
     48 H           0.0577  -38.6909   20.2867 H       1  LIG1        0.0252
@<TRIPOS>BOND
     1     1     2    1
     2     1     6    1
     3     1     7    1
     4     2     3    1
     5     3     4    1
     6     4     5    1
     7     5     6    1
     8     7     8    1
     9     8     9   ar
    10     8    15   ar
    11     9    10    1
    12     9    13   ar
    13    10    11    1
    14    10    12    1
    15    13    14    2
    16    13    18   ar
    17    15    16   ar
    18    15    19    1
    19    16    17    2
    20    16    18   ar
    21    18    23    1
    22    19    20    1
    23    20    21    1
    24    21    22    1
    25     1    24    1
    26     2    25    1
    27     2    26    1
    28     3    27    1
    29     3    28    1
    30     4    29    1
    31     4    30    1
    32     5    31    1
    33     5    32    1
    34     6    33    1
    35     6    34    1
    36    10    35    1
    37    11    36    1
    38    11    37    1
    39    11    38    1
    40    12    39    1
    41    12    40    1
    42    12    41    1
    43    19    42    1
    44    19    43    1
    45    21    44    1
    46    21    45    1
    47    22    46    1
    48    22    47    1
    49    22    48    1
