@<TRIPOS>MOLECULE
pose1.pdb
 48 49 0 0 0
SMALL
GASTEIGER

@<TRIPOS>ATOM
      1  C1        -0.7650  -36.6350   24.1160 C.3     1  LIG1        0.0112
      2  C2         0.6550  -37.0710   24.4420 C.3     1  LIG1       -0.0408
      3  C3         0.7890  -38.5700   24.3720 C.3     1  LIG1       -0.0521
      4  C4        -0.2080  -39.2450   25.3090 C.3     1  LIG1       -0.0530
      5  C5        -1.6290  -38.8170   24.9670 C.3     1  LIG1       -0.0521
      6  C6        -1.7540  -37.3120   25.0550 C.3     1  LIG1       -0.0408
      7  S1        -0.8020  -34.8350   24.4300 S.3     1  LIG1       -0.1036
      8  C7        -2.5780  -34.2830   24.4720 C.ar    1  LIG1        0.0909
      9  C8        -3.2660  -33.9900   23.3030 C.ar    1  LIG1        0.0497
     10  C9        -2.7790  -34.3580   21.8890 C.3     1  LIG1       -0.0139
     11  C10       -2.0660  -33.2430   21.1590 C.3     1  LIG1       -0.0584
     12  C11       -3.7970  -35.0700   21.0660 C.3     1  LIG1       -0.0584
     13  C12       -4.6240  -33.4790   23.3770 C.ar    1  LIG1        0.2585
     14  O1        -5.2790  -33.1450   22.3980 O.2     1  LIG1       -0.2674
     15  N1        -3.1910  -34.1150   25.7280 N.ar    1  LIG1       -0.2642
     16  C13       -4.5110  -33.6400   25.8540 C.ar    1  LIG1        0.3319
     17  O2        -5.0680  -33.5070   26.9420 O.2     1  LIG1       -0.2464
     18  N2        -5.1540  -33.3380   24.6630 N.ar    1  LIG1       -0.2746
     19  C14       -2.5060  -34.4720   26.9970 C.3     1  LIG1        0.1292
     20  O3        -3.2560  -35.4150   27.7540 O.3     1  LIG1       -0.3594
     21  C15       -2.7460  -35.5490   29.0840 C.3     1  LIG1        0.0471
     22  C16       -3.6020  -36.4900   29.8950 C.3     1  LIG1       -0.0415
     23  H1        -6.0730  -32.9900   24.7290 H       1  LIG1        0.1734
     24 H          -1.0295  -36.8891   23.1108 H       1  LIG1        0.0416
     25 H           0.9036  -36.7432   25.4297 H       1  LIG1        0.0276
     26 H           1.3186  -36.6355   23.7244 H       1  LIG1        0.0276
     27 H           1.7823  -38.8475   24.6571 H       1  LIG1        0.0266
     28 H           0.5881  -38.8869   23.3699 H       1  LIG1        0.0266
     29 H           0.0114  -38.9656   26.3183 H       1  LIG1        0.0265
     30 H          -0.1277  -40.3060   25.1963 H       1  LIG1        0.0265
     31 H          -2.3106  -39.2697   25.6565 H       1  LIG1        0.0266
     32 H          -1.8586  -39.1298   23.9698 H       1  LIG1        0.0266
     33 H          -2.7486  -37.0255   24.7838 H       1  LIG1        0.0276
     34 H          -1.5408  -37.0068   26.0581 H       1  LIG1        0.0276
     35 H          -2.0114  -35.0837   22.0594 H       1  LIG1        0.0346
     36 H          -2.7601  -32.4583   20.9411 H       1  LIG1        0.0235
     37 H          -1.6556  -33.6200   20.2456 H       1  LIG1        0.0235
     38 H          -1.2776  -32.8613   21.7735 H       1  LIG1        0.0235
     39 H          -4.6079  -34.4064   20.8492 H       1  LIG1        0.0235
     40 H          -4.1641  -35.9170   21.6071 H       1  LIG1        0.0235
     41 H          -3.3499  -35.3978   20.1508 H       1  LIG1        0.0235
     42 H          -2.3741  -33.5852   27.5810 H       1  LIG1        0.0802
     43 H          -1.5630  -34.9151   26.7532 H       1  LIG1        0.0802
     44 H          -2.7381  -34.5882   29.5549 H       1  LIG1        0.0558
     45 H          -1.7542  -35.9470   29.0320 H       1  LIG1        0.0558
     46 H          -4.5980  -36.1038   29.9553 H       1  LIG1        0.0252
     47 H          -3.1952  -36.5827   30.8803 H       1  LIG1        0.0252
     48 H          -3.6199  -37.4509   29.4246 H       1  LIG1        0.0252
@<TRIPOS>BOND
     1     1     2    1
     2     1     6    1
     3     1     7    1
     4     2     3    1
     5     3     4    1
     6     4     5    1
     7     5     6    1
     8     7     8    1
     9     8     9   ar
    10     8    15   ar
    11     9    10    1
    12     9    13   ar
    13    10    11    1
    14    10    12    1
    15    13    14    2
    16    13    18   ar
    17    15    16   ar
    18    15    19    1
    19    16    17    2
    20    16    18   ar
    21    18    23    1
    22    19    20    1
    23    20    21    1
    24    21    22    1
    25     1    24    1
    26     2    25    1
    27     2    26    1
    28     3    27    1
    29     3    28    1
    30     4    29    1
    31     4    30    1
    32     5    31    1
    33     5    32    1
    34     6    33    1
    35     6    34    1
    36    10    35    1
    37    11    36    1
    38    11    37    1
    39    11    38    1
    40    12    39    1
    41    12    40    1
    42    12    41    1
    43    19    42    1
    44    19    43    1
    45    21    44    1
    46    21    45    1
    47    22    46    1
    48    22    47    1
    49    22    48    1
