@<TRIPOS>MOLECULE
pose4.pdb
 48 49 0 0 0
SMALL
GASTEIGER

@<TRIPOS>ATOM
      1  C1        -2.1600  -35.1440   23.8420 C.3     1  LIG1        0.0112
      2  C2        -2.3440  -33.6550   24.0950 C.3     1  LIG1       -0.0408
      3  C3        -3.7970  -33.3190   24.3010 C.3     1  LIG1       -0.0521
      4  C4        -4.6300  -33.7660   23.1040 C.3     1  LIG1       -0.0530
      5  C5        -4.4550  -35.2600   22.8660 C.3     1  LIG1       -0.0521
      6  C6        -2.9930  -35.5830   22.6460 C.3     1  LIG1       -0.0408
      7  S1        -0.3920  -35.3500   23.4270 S.3     1  LIG1       -0.1036
      8  C7         0.3600  -36.5430   24.6400 C.ar    1  LIG1        0.0909
      9  C8         0.4010  -37.9050   24.3750 C.ar    1  LIG1        0.0497
     10  C9         0.1300  -38.5330   22.9950 C.3     1  LIG1       -0.0139
     11  C10       -0.8250  -39.7030   23.0140 C.3     1  LIG1       -0.0584
     12  C11        1.3590  -38.7630   22.1850 C.3     1  LIG1       -0.0584
     13  C12        0.9170  -38.8170   25.3810 C.ar    1  LIG1        0.2585
     14  O1         0.9370  -40.0340   25.2480 O.2     1  LIG1       -0.2674
     15  N1         0.8360  -36.0340   25.8630 N.ar    1  LIG1       -0.2642
     16  C13        1.3620  -36.8740   26.8640 C.ar    1  LIG1        0.3319
     17  O2         1.8000  -36.4450   27.9290 O.2     1  LIG1       -0.2464
     18  N2         1.3630  -38.2290   26.5680 N.ar    1  LIG1       -0.2746
     19  C14        0.8600  -34.5790   26.1590 C.3     1  LIG1        0.1292
     20  O3         1.8000  -33.8900   25.3420 O.3     1  LIG1       -0.3594
     21  C15        2.8800  -33.3570   26.1150 C.3     1  LIG1        0.0471
     22  C16        3.5960  -32.2670   25.3570 C.3     1  LIG1       -0.0415
     23  H1         1.7130  -38.8360   27.2600 H       1  LIG1        0.1734
     24 H          -2.4599  -35.7229   24.6905 H       1  LIG1        0.0416
     25 H          -1.9744  -33.1085   23.2526 H       1  LIG1        0.0276
     26 H          -1.8037  -33.3899   24.9797 H       1  LIG1        0.0276
     27 H          -3.8986  -32.2609   24.4239 H       1  LIG1        0.0266
     28 H          -4.1474  -33.8300   25.1733 H       1  LIG1        0.0266
     29 H          -4.3128  -33.2305   22.2336 H       1  LIG1        0.0265
     30 H          -5.6617  -33.5640   23.3033 H       1  LIG1        0.0265
     31 H          -5.0154  -35.5488   22.0014 H       1  LIG1        0.0266
     32 H          -4.8071  -35.7951   23.7231 H       1  LIG1        0.0266
     33 H          -2.8830  -36.6386   22.5096 H       1  LIG1        0.0276
     34 H          -2.6515  -35.0593   21.7777 H       1  LIG1        0.0276
     35 H          -0.4064  -37.7745   22.4641 H       1  LIG1        0.0346
     36 H          -0.3732  -40.5238   23.5308 H       1  LIG1        0.0235
     37 H          -1.0514  -39.9949   22.0098 H       1  LIG1        0.0235
     38 H          -1.7269  -39.4191   23.5149 H       1  LIG1        0.0235
     39 H           1.9581  -39.5165   22.6520 H       1  LIG1        0.0235
     40 H           1.9180  -37.8530   22.1188 H       1  LIG1        0.0235
     41 H           1.0835  -39.0846   21.2024 H       1  LIG1        0.0235
     42 H           1.1250  -34.4386   27.1861 H       1  LIG1        0.0802
     43 H          -0.1124  -34.1816   25.9556 H       1  LIG1        0.0802
     44 H           3.5723  -34.1418   26.3380 H       1  LIG1        0.0558
     45 H           2.4829  -32.9422   27.0178 H       1  LIG1        0.0558
     46 H           3.9987  -32.6683   24.4506 H       1  LIG1        0.0252
     47 H           4.3905  -31.8771   25.9584 H       1  LIG1        0.0252
     48 H           2.9067  -31.4824   25.1244 H       1  LIG1        0.0252
@<TRIPOS>BOND
     1     1     2    1
     2     1     6    1
     3     1     7    1
     4     2     3    1
     5     3     4    1
     6     4     5    1
     7     5     6    1
     8     7     8    1
     9     8     9   ar
    10     8    15   ar
    11     9    10    1
    12     9    13   ar
    13    10    11    1
    14    10    12    1
    15    13    14    2
    16    13    18   ar
    17    15    16   ar
    18    15    19    1
    19    16    17    2
    20    16    18   ar
    21    18    23    1
    22    19    20    1
    23    20    21    1
    24    21    22    1
    25     1    24    1
    26     2    25    1
    27     2    26    1
    28     3    27    1
    29     3    28    1
    30     4    29    1
    31     4    30    1
    32     5    31    1
    33     5    32    1
    34     6    33    1
    35     6    34    1
    36    10    35    1
    37    11    36    1
    38    11    37    1
    39    11    38    1
    40    12    39    1
    41    12    40    1
    42    12    41    1
    43    19    42    1
    44    19    43    1
    45    21    44    1
    46    21    45    1
    47    22    46    1
    48    22    47    1
    49    22    48    1
