@<TRIPOS>MOLECULE
pose3.pdb
 48 49 0 0 0
SMALL
GASTEIGER

@<TRIPOS>ATOM
      1  C1        -2.0570  -33.9160   24.9460 C.3     1  LIG1        0.0112
      2  C2        -1.8790  -34.1920   23.4600 C.3     1  LIG1       -0.0408
      3  C3        -2.7810  -33.3090   22.6370 C.3     1  LIG1       -0.0521
      4  C4        -4.2390  -33.4950   23.0460 C.3     1  LIG1       -0.0530
      5  C5        -4.4120  -33.2030   24.5310 C.3     1  LIG1       -0.0521
      6  C6        -3.5130  -34.1050   25.3470 C.3     1  LIG1       -0.0408
      7  S1        -1.0500  -35.1830   25.7960 S.3     1  LIG1       -0.1036
      8  C7         0.6630  -34.5020   26.0430 C.ar    1  LIG1        0.0909
      9  C8         1.7790  -35.1800   25.5710 C.ar    1  LIG1        0.0497
     10  C9         1.7310  -36.3510   24.5720 C.3     1  LIG1       -0.0139
     11  C10        2.1850  -37.6770   25.1360 C.3     1  LIG1       -0.0584
     12  C11        2.3060  -36.0280   23.2350 C.3     1  LIG1       -0.0584
     13  C12        3.1070  -34.6630   25.8570 C.ar    1  LIG1        0.2585
     14  O1         4.1410  -35.2270   25.5250 O.2     1  LIG1       -0.2674
     15  N1         0.8030  -33.3080   26.7740 N.ar    1  LIG1       -0.2642
     16  C13        2.0670  -32.7560   27.0620 C.ar    1  LIG1        0.3319
     17  O2         2.2060  -31.7030   27.6810 O.2     1  LIG1       -0.2464
     18  N2         3.1550  -33.4750   26.5920 N.ar    1  LIG1       -0.2746
     19  C14       -0.3690  -32.5270   27.2450 C.3     1  LIG1        0.1292
     20  O3        -0.8630  -33.0140   28.4870 O.3     1  LIG1       -0.3594
     21  C15       -2.2060  -32.5820   28.7270 C.3     1  LIG1        0.0471
     22  C16       -2.2640  -31.6390   29.9030 C.3     1  LIG1       -0.0415
     23  H1         4.0490  -33.1150   26.7960 H       1  LIG1        0.1734
     24 H          -1.7678  -32.9162   25.1943 H       1  LIG1        0.0416
     25 H          -2.1170  -35.2164   23.2630 H       1  LIG1        0.0276
     26 H          -0.8634  -33.9862   23.1934 H       1  LIG1        0.0276
     27 H          -2.6715  -33.5617   21.6031 H       1  LIG1        0.0266
     28 H          -2.5056  -32.2882   22.8014 H       1  LIG1        0.0266
     29 H          -4.5355  -34.5038   22.8476 H       1  LIG1        0.0265
     30 H          -4.8475  -32.8173   22.4845 H       1  LIG1        0.0265
     31 H          -5.4310  -33.3741   24.8088 H       1  LIG1        0.0266
     32 H          -4.1491  -32.1832   24.7200 H       1  LIG1        0.0266
     33 H          -3.6255  -33.8681   26.3844 H       1  LIG1        0.0276
     34 H          -3.7908  -35.1225   25.1671 H       1  LIG1        0.0276
     35 H           0.6866  -36.4957   24.3897 H       1  LIG1        0.0346
     36 H           3.2317  -37.6324   25.3537 H       1  LIG1        0.0235
     37 H           2.0023  -38.4506   24.4197 H       1  LIG1        0.0235
     38 H           1.6425  -37.8871   26.0340 H       1  LIG1        0.0235
     39 H           3.3596  -35.8669   23.3293 H       1  LIG1        0.0235
     40 H           1.8427  -35.1428   22.8519 H       1  LIG1        0.0235
     41 H           2.1284  -36.8424   22.5642 H       1  LIG1        0.0235
     42 H          -1.1465  -32.5934   26.5129 H       1  LIG1        0.0802
     43 H          -0.0586  -31.5126   27.3849 H       1  LIG1        0.0802
     44 H          -2.8177  -33.4357   28.9316 H       1  LIG1        0.0558
     45 H          -2.5612  -32.0685   27.8581 H       1  LIG1        0.0558
     46 H          -1.9111  -32.1403   30.7799 H       1  LIG1        0.0252
     47 H          -3.2743  -31.3214   30.0560 H       1  LIG1        0.0252
     48 H          -1.6478  -30.7864   29.7072 H       1  LIG1        0.0252
@<TRIPOS>BOND
     1     1     2    1
     2     1     6    1
     3     1     7    1
     4     2     3    1
     5     3     4    1
     6     4     5    1
     7     5     6    1
     8     7     8    1
     9     8     9   ar
    10     8    15   ar
    11     9    10    1
    12     9    13   ar
    13    10    11    1
    14    10    12    1
    15    13    14    2
    16    13    18   ar
    17    15    16   ar
    18    15    19    1
    19    16    17    2
    20    16    18   ar
    21    18    23    1
    22    19    20    1
    23    20    21    1
    24    21    22    1
    25     1    24    1
    26     2    25    1
    27     2    26    1
    28     3    27    1
    29     3    28    1
    30     4    29    1
    31     4    30    1
    32     5    31    1
    33     5    32    1
    34     6    33    1
    35     6    34    1
    36    10    35    1
    37    11    36    1
    38    11    37    1
    39    11    38    1
    40    12    39    1
    41    12    40    1
    42    12    41    1
    43    19    42    1
    44    19    43    1
    45    21    44    1
    46    21    45    1
    47    22    46    1
    48    22    47    1
    49    22    48    1
