@<TRIPOS>MOLECULE
pose6.pdb
 48 49 0 0 0
SMALL
GASTEIGER

@<TRIPOS>ATOM
      1  C1        -0.3910  -36.8030   24.8780 C.3     1  LIG1        0.0112
      2  C2         1.1250  -36.7810   24.7510 C.3     1  LIG1       -0.0408
      3  C3         1.6140  -37.9470   23.9320 C.3     1  LIG1       -0.0521
      4  C4         1.1460  -39.2670   24.5370 C.3     1  LIG1       -0.0530
      5  C5        -0.3730  -39.2880   24.6470 C.3     1  LIG1       -0.0521
      6  C6        -0.8500  -38.1210   25.4840 C.3     1  LIG1       -0.0408
      7  S1        -0.7970  -35.4540   26.0430 S.3     1  LIG1       -0.1036
      8  C7        -2.2450  -34.5070   25.3620 C.ar    1  LIG1        0.0909
      9  C8        -2.3680  -34.2660   24.0000 C.ar    1  LIG1        0.0497
     10  C9        -1.5400  -34.9740   22.9120 C.3     1  LIG1       -0.0139
     11  C10       -0.4900  -34.1080   22.2570 C.3     1  LIG1       -0.0584
     12  C11       -2.3590  -35.7680   21.9520 C.3     1  LIG1       -0.0584
     13  C12       -3.4660  -33.4500   23.5110 C.ar    1  LIG1        0.2585
     14  O1        -3.6150  -33.1460   22.3350 O.2     1  LIG1       -0.2674
     15  N1        -3.1860  -33.9880   26.2710 N.ar    1  LIG1       -0.2642
     16  C13       -4.2780  -33.2050   25.8460 C.ar    1  LIG1        0.3319
     17  O2        -5.1200  -32.7610   26.6250 O.2     1  LIG1       -0.2464
     18  N2        -4.3510  -32.9710   24.4810 N.ar    1  LIG1       -0.2746
     19  C14       -3.1180  -34.2710   27.7270 C.3     1  LIG1        0.1292
     20  O3        -2.7170  -33.1250   28.4700 O.3     1  LIG1       -0.3594
     21  C15       -1.3250  -33.1680   28.7970 C.3     1  LIG1        0.0471
     22  C16       -0.9520  -32.0250   29.7080 C.3     1  LIG1       -0.0415
     23  H1        -5.0980  -32.4130   24.1650 H       1  LIG1        0.1734
     24 H          -0.8641  -36.6891   23.9250 H       1  LIG1        0.0416
     25 H           1.5589  -36.8327   25.7277 H       1  LIG1        0.0276
     26 H           1.4134  -35.8747   24.2608 H       1  LIG1        0.0276
     27 H           2.6836  -37.9329   23.9051 H       1  LIG1        0.0266
     28 H           1.2158  -37.8625   22.9425 H       1  LIG1        0.0266
     29 H           1.5722  -39.3794   25.5120 H       1  LIG1        0.0265
     30 H           1.4607  -40.0710   23.9049 H       1  LIG1        0.0265
     31 H          -0.6819  -40.2032   25.1072 H       1  LIG1        0.0266
     32 H          -0.7961  -39.2123   23.6671 H       1  LIG1        0.0266
     33 H          -1.9190  -38.1340   25.5284 H       1  LIG1        0.0276
     34 H          -0.4371  -38.2105   26.4671 H       1  LIG1        0.0276
     35 H          -0.9702  -35.7017   23.4512 H       1  LIG1        0.0346
     36 H          -0.9672  -33.3390   21.6863 H       1  LIG1        0.0235
     37 H           0.1151  -34.7086   21.6104 H       1  LIG1        0.0235
     38 H           0.1259  -33.6630   23.0103 H       1  LIG1        0.0235
     39 H          -2.9644  -35.1069   21.3678 H       1  LIG1        0.0235
     40 H          -2.9883  -36.4432   22.4934 H       1  LIG1        0.0235
     41 H          -1.7121  -36.3238   21.3059 H       1  LIG1        0.0235
     42 H          -2.4115  -35.0570   27.8944 H       1  LIG1        0.0802
     43 H          -4.0954  -34.5558   28.0565 H       1  LIG1        0.0802
     44 H          -0.7511  -33.1002   27.8965 H       1  LIG1        0.0558
     45 H          -1.1200  -34.0890   29.3016 H       1  LIG1        0.0558
     46 H          -1.1521  -31.0964   29.2154 H       1  LIG1        0.0252
     47 H           0.0892  -32.0848   29.9472 H       1  LIG1        0.0252
     48 H          -1.5286  -32.0831   30.6075 H       1  LIG1        0.0252
@<TRIPOS>BOND
     1     1     2    1
     2     1     6    1
     3     1     7    1
     4     2     3    1
     5     3     4    1
     6     4     5    1
     7     5     6    1
     8     7     8    1
     9     8     9   ar
    10     8    15   ar
    11     9    10    1
    12     9    13   ar
    13    10    11    1
    14    10    12    1
    15    13    14    2
    16    13    18   ar
    17    15    16   ar
    18    15    19    1
    19    16    17    2
    20    16    18   ar
    21    18    23    1
    22    19    20    1
    23    20    21    1
    24    21    22    1
    25     1    24    1
    26     2    25    1
    27     2    26    1
    28     3    27    1
    29     3    28    1
    30     4    29    1
    31     4    30    1
    32     5    31    1
    33     5    32    1
    34     6    33    1
    35     6    34    1
    36    10    35    1
    37    11    36    1
    38    11    37    1
    39    11    38    1
    40    12    39    1
    41    12    40    1
    42    12    41    1
    43    19    42    1
    44    19    43    1
    45    21    44    1
    46    21    45    1
    47    22    46    1
    48    22    47    1
    49    22    48    1
