@<TRIPOS>MOLECULE
pose8.pdb
 48 49 0 0 0
SMALL
GASTEIGER

@<TRIPOS>ATOM
      1  C1        -0.5900  -33.9650   27.0060 C.3     1  LIG1        0.0112
      2  C2        -0.9120  -33.8990   28.4920 C.3     1  LIG1       -0.0408
      3  C3        -0.2350  -32.7190   29.1380 C.3     1  LIG1       -0.0521
      4  C4         1.2730  -32.7750   28.9190 C.3     1  LIG1       -0.0530
      5  C5         1.5900  -32.8250   27.4300 C.3     1  LIG1       -0.0521
      6  C6         0.9170  -34.0220   26.7960 C.3     1  LIG1       -0.0408
      7  S1        -1.3190  -35.5370   26.4230 S.3     1  LIG1       -0.1036
      8  C7        -1.4200  -35.4830   24.5670 C.ar    1  LIG1        0.0909
      9  C8        -0.7330  -36.4000   23.7840 C.ar    1  LIG1        0.0497
     10  C9        -0.0900  -37.6940   24.3190 C.3     1  LIG1       -0.0139
     11  C10        1.3890  -37.8240   24.0360 C.3     1  LIG1       -0.0584
     12  C11       -0.8770  -38.9250   24.0260 C.3     1  LIG1       -0.0584
     13  C12       -0.7650  -36.2760   22.3370 C.ar    1  LIG1        0.2585
     14  O1        -0.1440  -37.0100   21.5780 O.2     1  LIG1       -0.2674
     15  N1        -2.1660  -34.4470   23.9730 N.ar    1  LIG1       -0.2642
     16  C13       -2.2430  -34.2940   22.5740 C.ar    1  LIG1        0.3319
     17  O2        -2.9070  -33.4080   22.0390 O.2     1  LIG1       -0.2464
     18  N2        -1.5250  -35.2180   21.8310 N.ar    1  LIG1       -0.2746
     19  C14       -2.9580  -33.4820   24.7760 C.3     1  LIG1        0.1292
     20  O3        -4.1840  -34.0490   25.2250 O.3     1  LIG1       -0.3594
     21  C15       -5.0810  -33.0480   25.7150 C.3     1  LIG1        0.0471
     22  C16       -6.0680  -33.6420   26.6900 C.3     1  LIG1       -0.0415
     23  H1        -1.5530  -35.1200   20.8520 H       1  LIG1        0.1734
     24 H          -0.9697  -33.1104   26.4860 H       1  LIG1        0.0416
     25 H          -0.5740  -34.7980   28.9637 H       1  LIG1        0.0276
     26 H          -1.9702  -33.7907   28.6075 H       1  LIG1        0.0276
     27 H          -0.4378  -32.7298   30.1886 H       1  LIG1        0.0266
     28 H          -0.6133  -31.8212   28.6955 H       1  LIG1        0.0266
     29 H           1.6662  -33.6500   29.3931 H       1  LIG1        0.0265
     30 H           1.7184  -31.8980   29.3402 H       1  LIG1        0.0265
     31 H           2.6488  -32.9019   27.2958 H       1  LIG1        0.0266
     32 H           1.2282  -31.9321   26.9644 H       1  LIG1        0.0266
     33 H           1.1256  -34.0274   25.7465 H       1  LIG1        0.0276
     34 H           1.2950  -34.9121   27.2539 H       1  LIG1        0.0276
     35 H          -0.1382  -37.5888   25.3827 H       1  LIG1        0.0346
     36 H           1.5422  -37.9355   22.9829 H       1  LIG1        0.0235
     37 H           1.7756  -38.6819   24.5454 H       1  LIG1        0.0235
     38 H           1.8963  -36.9467   24.3793 H       1  LIG1        0.0235
     39 H          -0.8792  -39.1043   22.9711 H       1  LIG1        0.0235
     40 H          -1.8826  -38.7952   24.3678 H       1  LIG1        0.0235
     41 H          -0.4343  -39.7594   24.5287 H       1  LIG1        0.0235
     42 H          -3.1732  -32.6244   24.1734 H       1  LIG1        0.0802
     43 H          -2.3813  -33.2127   25.6361 H       1  LIG1        0.0802
     44 H          -5.6149  -32.6222   24.8913 H       1  LIG1        0.0558
     45 H          -4.5118  -32.2955   26.2196 H       1  LIG1        0.0558
     46 H          -6.6449  -34.3971   26.1981 H       1  LIG1        0.0252
     47 H          -6.7196  -32.8737   27.0505 H       1  LIG1        0.0252
     48 H          -5.5393  -34.0764   27.5126 H       1  LIG1        0.0252
@<TRIPOS>BOND
     1     1     2    1
     2     1     6    1
     3     1     7    1
     4     2     3    1
     5     3     4    1
     6     4     5    1
     7     5     6    1
     8     7     8    1
     9     8     9   ar
    10     8    15   ar
    11     9    10    1
    12     9    13   ar
    13    10    11    1
    14    10    12    1
    15    13    14    2
    16    13    18   ar
    17    15    16   ar
    18    15    19    1
    19    16    17    2
    20    16    18   ar
    21    18    23    1
    22    19    20    1
    23    20    21    1
    24    21    22    1
    25     1    24    1
    26     2    25    1
    27     2    26    1
    28     3    27    1
    29     3    28    1
    30     4    29    1
    31     4    30    1
    32     5    31    1
    33     5    32    1
    34     6    33    1
    35     6    34    1
    36    10    35    1
    37    11    36    1
    38    11    37    1
    39    11    38    1
    40    12    39    1
    41    12    40    1
    42    12    41    1
    43    19    42    1
    44    19    43    1
    45    21    44    1
    46    21    45    1
    47    22    46    1
    48    22    47    1
    49    22    48    1
