@<TRIPOS>MOLECULE
pose5.pdb
 48 49 0 0 0
SMALL
GASTEIGER

@<TRIPOS>ATOM
      1  C1        -1.0710  -34.2050   27.2550 C.3     1  LIG1        0.0112
      2  C2        -1.7240  -33.2820   28.2730 C.3     1  LIG1       -0.0408
      3  C3        -0.6870  -32.4890   29.0250 C.3     1  LIG1       -0.0521
      4  C4         0.3120  -33.4180   29.7080 C.3     1  LIG1       -0.0530
      5  C5         0.9740  -34.3290   28.6810 C.3     1  LIG1       -0.0521
      6  C6        -0.0760  -35.1290   27.9440 C.3     1  LIG1       -0.0408
      7  S1        -2.4330  -35.2180   26.5770 S.3     1  LIG1       -0.1036
      8  C7        -2.4640  -34.9980   24.7300 C.ar    1  LIG1        0.0909
      9  C8        -3.4350  -34.2200   24.1160 C.ar    1  LIG1        0.0497
     10  C9        -4.3680  -33.2450   24.8580 C.3     1  LIG1       -0.0139
     11  C10       -3.6700  -32.3250   25.8320 C.3     1  LIG1       -0.0584
     12  C11       -5.6010  -33.8840   25.4000 C.3     1  LIG1       -0.0584
     13  C12       -3.4810  -34.1410   22.6660 C.ar    1  LIG1        0.2585
     14  O1        -4.3360  -33.5220   22.0460 O.2     1  LIG1       -0.2674
     15  N1        -1.5080  -35.6920   23.9640 N.ar    1  LIG1       -0.2642
     16  C13       -1.4980  -35.6330   22.5560 C.ar    1  LIG1        0.3319
     17  O2        -0.6580  -36.2160   21.8730 O.2     1  LIG1       -0.2464
     18  N2        -2.4990  -34.8630   21.9830 N.ar    1  LIG1       -0.2746
     19  C14       -0.4200  -36.4880   24.5880 C.3     1  LIG1        0.1292
     20  O3         0.8130  -35.7790   24.6000 O.3     1  LIG1       -0.3594
     21  C15        1.5520  -36.0250   25.8000 C.3     1  LIG1        0.0471
     22  C16        2.9350  -36.5370   25.4830 C.3     1  LIG1       -0.0415
     23  H1        -2.5190  -34.8210   21.0000 H       1  LIG1        0.1734
     24 H          -0.5495  -33.6500   26.5034 H       1  LIG1        0.0416
     25 H          -2.2870  -33.8696   28.9677 H       1  LIG1        0.0276
     26 H          -2.3646  -32.6001   27.7538 H       1  LIG1        0.0276
     27 H          -1.1728  -31.8896   29.7664 H       1  LIG1        0.0266
     28 H          -0.1600  -31.8673   28.3317 H       1  LIG1        0.0266
     29 H          -0.2003  -34.0162   30.4323 H       1  LIG1        0.0265
     30 H           1.0652  -32.8279   30.1869 H       1  LIG1        0.0265
     31 H           1.6431  -34.9982   29.1805 H       1  LIG1        0.0266
     32 H           1.5155  -33.7303   27.9787 H       1  LIG1        0.0266
     33 H           0.4016  -35.7421   27.2085 H       1  LIG1        0.0276
     34 H          -0.6027  -35.7375   28.6491 H       1  LIG1        0.0276
     35 H          -4.7185  -32.5858   24.0915 H       1  LIG1        0.0346
     36 H          -3.2792  -32.8982   26.6466 H       1  LIG1        0.0235
     37 H          -4.3679  -31.6048   26.2051 H       1  LIG1        0.0235
     38 H          -2.8685  -31.8203   25.3341 H       1  LIG1        0.0235
     39 H          -5.3356  -34.5660   26.1806 H       1  LIG1        0.0235
     40 H          -6.1011  -34.4150   24.6172 H       1  LIG1        0.0235
     41 H          -6.2512  -33.1296   25.7912 H       1  LIG1        0.0235
     42 H          -0.2928  -37.3947   24.0342 H       1  LIG1        0.0802
     43 H          -0.6963  -36.6919   25.6014 H       1  LIG1        0.0802
     44 H           1.0342  -36.7542   26.3874 H       1  LIG1        0.0558
     45 H           1.6425  -35.1063   26.3410 H       1  LIG1        0.0558
     46 H           2.8594  -37.4566   24.9413 H       1  LIG1        0.0252
     47 H           3.4714  -36.7027   26.3939 H       1  LIG1        0.0252
     48 H           3.4552  -35.8149   24.8890 H       1  LIG1        0.0252
@<TRIPOS>BOND
     1     1     2    1
     2     1     6    1
     3     1     7    1
     4     2     3    1
     5     3     4    1
     6     4     5    1
     7     5     6    1
     8     7     8    1
     9     8     9   ar
    10     8    15   ar
    11     9    10    1
    12     9    13   ar
    13    10    11    1
    14    10    12    1
    15    13    14    2
    16    13    18   ar
    17    15    16   ar
    18    15    19    1
    19    16    17    2
    20    16    18   ar
    21    18    23    1
    22    19    20    1
    23    20    21    1
    24    21    22    1
    25     1    24    1
    26     2    25    1
    27     2    26    1
    28     3    27    1
    29     3    28    1
    30     4    29    1
    31     4    30    1
    32     5    31    1
    33     5    32    1
    34     6    33    1
    35     6    34    1
    36    10    35    1
    37    11    36    1
    38    11    37    1
    39    11    38    1
    40    12    39    1
    41    12    40    1
    42    12    41    1
    43    19    42    1
    44    19    43    1
    45    21    44    1
    46    21    45    1
    47    22    46    1
    48    22    47    1
    49    22    48    1
