@<TRIPOS>MOLECULE
pose0.pdb
 48 49 0 0 0
SMALL
GASTEIGER

@<TRIPOS>ATOM
      1  C1        -2.6680  -34.7030   24.5210 C.3     1  LIG1        0.0112
      2  C2        -2.8260  -34.3630   25.9950 C.3     1  LIG1       -0.0408
      3  C3        -4.2700  -34.1030   26.3360 C.3     1  LIG1       -0.0521
      4  C4        -4.8390  -32.9870   25.4650 C.3     1  LIG1       -0.0530
      5  C5        -4.6920  -33.3400   23.9910 C.3     1  LIG1       -0.0521
      6  C6        -3.2360  -33.5850   23.6580 C.3     1  LIG1       -0.0408
      7  S1        -0.8650  -34.7980   24.2370 S.3     1  LIG1       -0.1036
      8  C7        -0.1580  -36.0810   25.3840 C.ar    1  LIG1        0.0909
      9  C8        -0.1150  -37.4200   25.0230 C.ar    1  LIG1        0.0497
     10  C9        -0.3450  -37.9450   23.5930 C.3     1  LIG1       -0.0139
     11  C10        0.6610  -37.4600   22.5760 C.3     1  LIG1       -0.0584
     12  C11       -1.7620  -37.8580   23.1380 C.3     1  LIG1       -0.0584
     13  C12        0.3640  -38.4060   25.9760 C.ar    1  LIG1        0.2585
     14  O1         0.3820  -39.6110   25.7560 O.2     1  LIG1       -0.2674
     15  N1         0.2800  -35.6640   26.6550 N.ar    1  LIG1       -0.2642
     16  C13        0.7700  -36.5790   27.6090 C.ar    1  LIG1        0.3319
     17  O2         1.1760  -36.2300   28.7160 O.2     1  LIG1       -0.2464
     18  N2         0.7740  -37.9090   27.2160 N.ar    1  LIG1       -0.2746
     19  C14        0.3020  -34.2350   27.0560 C.3     1  LIG1        0.1292
     20  O3        -0.5170  -33.9930   28.1950 O.3     1  LIG1       -0.3594
     21  C15       -1.2030  -32.7410   28.0950 C.3     1  LIG1        0.0471
     22  C16       -1.6770  -32.2800   29.4510 C.3     1  LIG1       -0.0415
     23  H1         1.0990  -38.5660   27.8730 H       1  LIG1        0.1734
     24 H          -3.1783  -35.6104   24.2738 H       1  LIG1        0.0416
     25 H          -2.2510  -33.4881   26.2161 H       1  LIG1        0.0276
     26 H          -2.4823  -35.1934   26.5757 H       1  LIG1        0.0276
     27 H          -4.3417  -33.8166   27.3645 H       1  LIG1        0.0266
     28 H          -4.8309  -34.9968   26.1587 H       1  LIG1        0.0266
     29 H          -4.3100  -32.0787   25.6649 H       1  LIG1        0.0265
     30 H          -5.8775  -32.8638   25.6915 H       1  LIG1        0.0265
     31 H          -5.0602  -32.5313   23.3949 H       1  LIG1        0.0266
     32 H          -5.2526  -34.2280   23.7858 H       1  LIG1        0.0266
     33 H          -3.1528  -33.8600   22.6273 H       1  LIG1        0.0276
     34 H          -2.6837  -32.6886   23.8486 H       1  LIG1        0.0276
     35 H          -0.1481  -38.9942   23.6663 H       1  LIG1        0.0346
     36 H           0.5425  -36.4065   22.4314 H       1  LIG1        0.0235
     37 H           0.5025  -37.9675   21.6474 H       1  LIG1        0.0235
     38 H           1.6507  -37.6625   22.9287 H       1  LIG1        0.0235
     39 H          -2.0421  -36.8301   23.0383 H       1  LIG1        0.0235
     40 H          -2.3971  -38.3327   23.8565 H       1  LIG1        0.0235
     41 H          -1.8638  -38.3487   22.1926 H       1  LIG1        0.0235
     42 H          -0.0544  -33.6409   26.2406 H       1  LIG1        0.0802
     43 H           1.3088  -33.9760   27.3092 H       1  LIG1        0.0802
     44 H          -2.0477  -32.8545   27.4481 H       1  LIG1        0.0558
     45 H          -0.5277  -32.0104   27.7011 H       1  LIG1        0.0558
     46 H          -2.3540  -33.0025   29.8568 H       1  LIG1        0.0252
     47 H          -2.1764  -31.3387   29.3532 H       1  LIG1        0.0252
     48 H          -0.8368  -32.1718   30.1047 H       1  LIG1        0.0252
@<TRIPOS>BOND
     1     1     2    1
     2     1     6    1
     3     1     7    1
     4     2     3    1
     5     3     4    1
     6     4     5    1
     7     5     6    1
     8     7     8    1
     9     8     9   ar
    10     8    15   ar
    11     9    10    1
    12     9    13   ar
    13    10    11    1
    14    10    12    1
    15    13    14    2
    16    13    18   ar
    17    15    16   ar
    18    15    19    1
    19    16    17    2
    20    16    18   ar
    21    18    23    1
    22    19    20    1
    23    20    21    1
    24    21    22    1
    25     1    24    1
    26     2    25    1
    27     2    26    1
    28     3    27    1
    29     3    28    1
    30     4    29    1
    31     4    30    1
    32     5    31    1
    33     5    32    1
    34     6    33    1
    35     6    34    1
    36    10    35    1
    37    11    36    1
    38    11    37    1
    39    11    38    1
    40    12    39    1
    41    12    40    1
    42    12    41    1
    43    19    42    1
    44    19    43    1
    45    21    44    1
    46    21    45    1
    47    22    46    1
    48    22    47    1
    49    22    48    1
