@<TRIPOS>MOLECULE
pose2.pdb
 48 49 0 0 0
SMALL
GASTEIGER

@<TRIPOS>ATOM
      1  C1        -0.0690  -36.8990   24.4410 C.3     1  LIG1        0.0112
      2  C2         0.9570  -36.7480   25.5540 C.3     1  LIG1       -0.0408
      3  C3         0.9650  -37.9600   26.4480 C.3     1  LIG1       -0.0521
      4  C4        -0.4230  -38.2120   27.0300 C.3     1  LIG1       -0.0530
      5  C5        -1.4420  -38.3780   25.9110 C.3     1  LIG1       -0.0521
      6  C6        -1.4520  -37.1490   25.0290 C.3     1  LIG1       -0.0408
      7  S1        -0.0860  -35.2890   23.5770 S.3     1  LIG1       -0.1036
      8  C7        -1.7660  -34.5230   23.7970 C.ar    1  LIG1        0.0909
      9  C8        -2.6880  -34.5050   22.7600 C.ar    1  LIG1        0.0497
     10  C9        -2.5670  -35.3400   21.4710 C.3     1  LIG1       -0.0139
     11  C10       -2.5720  -36.8350   21.6880 C.3     1  LIG1       -0.0584
     12  C11       -1.5040  -34.8640   20.5410 C.3     1  LIG1       -0.0584
     13  C12       -3.9580  -33.8220   22.9390 C.ar    1  LIG1        0.2585
     14  O1        -4.8020  -33.7140   22.0580 O.2     1  LIG1       -0.2674
     15  N1        -2.0580  -33.9070   25.0290 N.ar    1  LIG1       -0.2642
     16  C13       -3.2820  -33.2480   25.2590 C.ar    1  LIG1        0.3319
     17  O2        -3.5610  -32.7230   26.3350 O.2     1  LIG1       -0.2464
     18  N2        -4.1650  -33.2340   24.1900 N.ar    1  LIG1       -0.2746
     19  C14       -1.1200  -33.9540   26.1790 C.3     1  LIG1        0.1292
     20  O3        -1.0730  -32.7130   26.8730 O.3     1  LIG1       -0.3594
     21  C15       -1.0790  -32.9010   28.2920 C.3     1  LIG1        0.0471
     22  C16        0.1820  -32.3530   28.9110 C.3     1  LIG1       -0.0415
     23  H1        -5.0200  -32.7650   24.3250 H       1  LIG1        0.1734
     24 H           0.1741  -37.7167   23.7951 H       1  LIG1        0.0416
     25 H           0.7158  -35.8842   26.1376 H       1  LIG1        0.0276
     26 H           1.9261  -36.6432   25.1127 H       1  LIG1        0.0276
     27 H           1.6576  -37.8014   27.2481 H       1  LIG1        0.0266
     28 H           1.2544  -38.8119   25.8689 H       1  LIG1        0.0266
     29 H          -0.7046  -37.3820   27.6438 H       1  LIG1        0.0265
     30 H          -0.3983  -39.1079   27.6145 H       1  LIG1        0.0265
     31 H          -2.4143  -38.5165   26.3357 H       1  LIG1        0.0266
     32 H          -1.1773  -39.2301   25.3205 H       1  LIG1        0.0266
     33 H          -2.1517  -37.2936   24.2325 H       1  LIG1        0.0276
     34 H          -1.7333  -36.3027   25.6202 H       1  LIG1        0.0276
     35 H          -3.4846  -35.1536   20.9531 H       1  LIG1        0.0346
     36 H          -1.6814  -37.1231   22.2064 H       1  LIG1        0.0235
     37 H          -2.6106  -37.3327   20.7416 H       1  LIG1        0.0235
     38 H          -3.4275  -37.1081   22.2697 H       1  LIG1        0.0235
     39 H          -0.5441  -35.0164   20.9886 H       1  LIG1        0.0235
     40 H          -1.6438  -33.8218   20.3430 H       1  LIG1        0.0235
     41 H          -1.5609  -35.4121   19.6238 H       1  LIG1        0.0235
     42 H          -0.1400  -34.1861   25.8175 H       1  LIG1        0.0802
     43 H          -1.4658  -34.7033   26.8601 H       1  LIG1        0.0802
     44 H          -1.1492  -33.9469   28.5068 H       1  LIG1        0.0558
     45 H          -1.9175  -32.3787   28.7032 H       1  LIG1        0.0558
     46 H           1.0296  -32.8671   28.5082 H       1  LIG1        0.0252
     47 H           0.1496  -32.4946   29.9711 H       1  LIG1        0.0252
     48 H           0.2616  -31.3085   28.6929 H       1  LIG1        0.0252
@<TRIPOS>BOND
     1     1     2    1
     2     1     6    1
     3     1     7    1
     4     2     3    1
     5     3     4    1
     6     4     5    1
     7     5     6    1
     8     7     8    1
     9     8     9   ar
    10     8    15   ar
    11     9    10    1
    12     9    13   ar
    13    10    11    1
    14    10    12    1
    15    13    14    2
    16    13    18   ar
    17    15    16   ar
    18    15    19    1
    19    16    17    2
    20    16    18   ar
    21    18    23    1
    22    19    20    1
    23    20    21    1
    24    21    22    1
    25     1    24    1
    26     2    25    1
    27     2    26    1
    28     3    27    1
    29     3    28    1
    30     4    29    1
    31     4    30    1
    32     5    31    1
    33     5    32    1
    34     6    33    1
    35     6    34    1
    36    10    35    1
    37    11    36    1
    38    11    37    1
    39    11    38    1
    40    12    39    1
    41    12    40    1
    42    12    41    1
    43    19    42    1
    44    19    43    1
    45    21    44    1
    46    21    45    1
    47    22    46    1
    48    22    47    1
    49    22    48    1
