@<TRIPOS>MOLECULE
pose7.pdb
 48 49 0 0 0
SMALL
GASTEIGER

@<TRIPOS>ATOM
      1  C1        -0.0850  -35.8530   26.2100 C.3     1  LIG1        0.0112
      2  C2         0.7810  -36.4840   27.2910 C.3     1  LIG1       -0.0408
      3  C3         1.0310  -37.9400   27.0000 C.3     1  LIG1       -0.0521
      4  C4        -0.2860  -38.6970   26.8590 C.3     1  LIG1       -0.0530
      5  C5        -1.1410  -38.0710   25.7650 C.3     1  LIG1       -0.0521
      6  C6        -1.3970  -36.6120   26.0770 C.3     1  LIG1       -0.0408
      7  S1        -0.4470  -34.1630   26.8060 S.3     1  LIG1       -0.1036
      8  C7        -2.2270  -33.7770   26.4280 C.ar    1  LIG1        0.0909
      9  C8        -3.1790  -33.7240   27.4360 C.ar    1  LIG1        0.0497
     10  C9        -2.8540  -33.6720   28.9400 C.3     1  LIG1       -0.0139
     11  C10       -2.0310  -32.4790   29.3650 C.3     1  LIG1       -0.0584
     12  C11       -2.3790  -34.9690   29.5000 C.3     1  LIG1       -0.0584
     13  C12       -4.5750  -33.5060   27.0950 C.ar    1  LIG1        0.2585
     14  O1        -5.4820  -33.5000   27.9170 O.2     1  LIG1       -0.2674
     15  N1        -2.5940  -33.5980   25.0810 N.ar    1  LIG1       -0.2642
     16  C13       -3.9310  -33.3650   24.7000 C.ar    1  LIG1        0.3319
     17  O2        -4.2660  -33.1860   23.5300 O.2     1  LIG1       -0.2464
     18  N2        -4.8530  -33.3420   25.7350 N.ar    1  LIG1       -0.2746
     19  C14       -1.5950  -33.5920   23.9820 C.3     1  LIG1        0.1292
     20  O3        -1.9330  -34.5190   22.9560 O.3     1  LIG1       -0.3594
     21  C15       -1.1630  -35.7210   23.0570 C.3     1  LIG1        0.0471
     22  C16       -1.1140  -36.4390   21.7310 C.3     1  LIG1       -0.0415
     23  H1        -5.7950  -33.1970   25.4880 H       1  LIG1        0.1734
     24 H           0.4070  -35.8640   25.2599 H       1  LIG1        0.0416
     25 H           0.2831  -36.3960   28.2340 H       1  LIG1        0.0276
     26 H           1.7216  -35.9746   27.3150 H       1  LIG1        0.0276
     27 H           1.5967  -38.3662   27.8021 H       1  LIG1        0.0266
     28 H           1.5724  -38.0184   26.0804 H       1  LIG1        0.0266
     29 H          -0.8166  -38.6581   27.7874 H       1  LIG1        0.0265
     30 H          -0.0770  -39.7136   26.5985 H       1  LIG1        0.0265
     31 H          -2.0751  -38.5895   25.7054 H       1  LIG1        0.0266
     32 H          -0.6241  -38.1443   24.8310 H       1  LIG1        0.0266
     33 H          -1.9744  -36.1797   25.2867 H       1  LIG1        0.0276
     34 H          -1.9284  -36.5461   27.0034 H       1  LIG1        0.0276
     35 H          -3.8032  -33.5060   29.4052 H       1  LIG1        0.0346
     36 H          -1.0502  -32.5541   28.9440 H       1  LIG1        0.0235
     37 H          -1.9603  -32.4565   30.4324 H       1  LIG1        0.0235
     38 H          -2.4995  -31.5812   29.0196 H       1  LIG1        0.0235
     39 H          -1.4245  -35.2103   29.0808 H       1  LIG1        0.0235
     40 H          -3.0801  -35.7402   29.2579 H       1  LIG1        0.0235
     41 H          -2.2913  -34.8877   30.5633 H       1  LIG1        0.0235
     42 H          -0.6376  -33.8525   24.3826 H       1  LIG1        0.0802
     43 H          -1.5783  -32.6120   23.5528 H       1  LIG1        0.0802
     44 H          -1.6093  -36.3631   23.7873 H       1  LIG1        0.0558
     45 H          -0.1649  -35.4656   23.3458 H       1  LIG1        0.0558
     46 H          -2.1070  -36.7005   21.4301 H       1  LIG1        0.0252
     47 H          -0.5251  -37.3271   21.8278 H       1  LIG1        0.0252
     48 H          -0.6752  -35.7986   20.9946 H       1  LIG1        0.0252
@<TRIPOS>BOND
     1     1     2    1
     2     1     6    1
     3     1     7    1
     4     2     3    1
     5     3     4    1
     6     4     5    1
     7     5     6    1
     8     7     8    1
     9     8     9   ar
    10     8    15   ar
    11     9    10    1
    12     9    13   ar
    13    10    11    1
    14    10    12    1
    15    13    14    2
    16    13    18   ar
    17    15    16   ar
    18    15    19    1
    19    16    17    2
    20    16    18   ar
    21    18    23    1
    22    19    20    1
    23    20    21    1
    24    21    22    1
    25     1    24    1
    26     2    25    1
    27     2    26    1
    28     3    27    1
    29     3    28    1
    30     4    29    1
    31     4    30    1
    32     5    31    1
    33     5    32    1
    34     6    33    1
    35     6    34    1
    36    10    35    1
    37    11    36    1
    38    11    37    1
    39    11    38    1
    40    12    39    1
    41    12    40    1
    42    12    41    1
    43    19    42    1
    44    19    43    1
    45    21    44    1
    46    21    45    1
    47    22    46    1
    48    22    47    1
    49    22    48    1
