U05.pdb
 OpenBabel10022018353D

 36 38  0  0  0  0  0  0  0  0999 V2000
   -1.5530  -35.6200   23.1860 N   0  0  0  0  0  0  0  0  0  0  0  0
   -2.4820  -35.0520   22.3410 C   0  0  0  0  0  0  0  0  0  0  0  0
   -3.4460  -34.1360   22.8040 C   0  0  0  0  0  0  0  0  0  0  0  0
   -3.4460  -33.7790   24.2040 C   0  0  0  0  0  0  0  0  0  0  0  0
   -2.4880  -34.3490   25.0450 C   0  0  0  0  0  0  0  0  0  0  0  0
   -2.4630  -33.9540   26.5200 C   0  0  0  0  0  0  0  0  0  0  0  0
   -3.5450  -33.6850   27.0400 O   0  0  0  0  0  0  0  0  0  0  0  0
   -1.3080  -33.8460   27.2310 N   0  0  0  0  0  0  0  0  0  0  0  0
   -1.4150  -33.5610   28.6910 C   0  0  0  0  0  0  0  0  0  0  0  0
    0.0770  -34.0530   26.7760 C   0  0  0  0  0  0  0  0  0  0  0  0
    1.1310  -33.2750   27.2920 C   0  0  0  0  0  0  0  0  0  0  0  0
    2.4600  -33.4350   26.7960 C   0  0  0  0  0  0  0  0  0  0  0  0
    2.7370  -34.3700   25.7890 C   0  0  0  0  0  0  0  0  0  0  0  0
    4.1550  -34.5340   25.2150 N   0  0  0  0  0  0  0  0  0  0  0  0
    4.3450  -35.3100   24.2770 O   0  0  0  0  0  0  0  0  0  0  0  0
    5.0340  -33.9020   25.7420 O   0  0  0  0  0  0  0  0  0  0  0  0
    1.6850  -35.1500   25.3050 C   0  0  0  0  0  0  0  0  0  0  0  0
    0.3740  -34.9970   25.8070 C   0  0  0  0  0  0  0  0  0  0  0  0
   -0.6670  -35.8440   25.4330 N   0  0  0  0  0  0  0  0  0  0  0  0
   -0.3720  -37.3680   25.4130 C   0  0  0  0  0  0  0  0  0  0  0  0
   -0.1980  -37.9540   24.0750 C   0  0  0  0  0  0  0  0  0  0  0  0
   -1.5670  -35.2720   24.5080 C   0  0  0  0  0  0  0  0  0  0  0  0
   -2.4707  -35.3052   21.3406 H   0  0  0  0  0  0  0  0  0  0  0  0
   -4.1384  -33.7280   22.1566 H   0  0  0  0  0  0  0  0  0  0  0  0
   -4.1421  -33.1141   24.5761 H   0  0  0  0  0  0  0  0  0  0  0  0
   -2.4431  -33.4217   28.9528 H   0  0  0  0  0  0  0  0  0  0  0  0
   -0.8646  -32.6731   28.9224 H   0  0  0  0  0  0  0  0  0  0  0  0
   -1.0141  -34.3838   29.2453 H   0  0  0  0  0  0  0  0  0  0  0  0
    0.9413  -32.5838   28.0345 H   0  0  0  0  0  0  0  0  0  0  0  0
    3.2232  -32.8575   27.1820 H   0  0  0  0  0  0  0  0  0  0  0  0
    1.8684  -35.8495   24.5687 H   0  0  0  0  0  0  0  0  0  0  0  0
   -1.1876  -37.8695   25.8907 H   0  0  0  0  0  0  0  0  0  0  0  0
    0.5627  -37.4965   25.9177 H   0  0  0  0  0  0  0  0  0  0  0  0
   -1.1077  -37.8537   23.5207 H   0  0  0  0  0  0  0  0  0  0  0  0
    0.0499  -38.9906   24.1691 H   0  0  0  0  0  0  0  0  0  0  0  0
    0.5903  -37.4439   23.5620 H   0  0  0  0  0  0  0  0  0  0  0  0
  1  2  2  0  0  0  0
  1 22  1  0  0  0  0
  2  3  1  0  0  0  0
  2 23  1  0  0  0  0
  3  4  2  0  0  0  0
  3 24  1  0  0  0  0
  4  5  1  0  0  0  0
  4 25  1  0  0  0  0
  5  6  1  0  0  0  0
  5 22  2  0  0  0  0
  6  7  2  0  0  0  0
  6  8  1  0  0  0  0
  8  9  1  0  0  0  0
  8 10  1  0  0  0  0
  9 26  1  0  0  0  0
  9 27  1  0  0  0  0
  9 28  1  0  0  0  0
 10 11  2  0  0  0  0
 10 18  1  0  0  0  0
 11 12  1  0  0  0  0
 11 29  1  0  0  0  0
 12 13  2  0  0  0  0
 12 30  1  0  0  0  0
 13 14  1  0  0  0  0
 13 17  1  0  0  0  0
 14 15  2  0  0  0  0
 14 16  2  0  0  0  0
 17 18  2  0  0  0  0
 17 31  1  0  0  0  0
 18 19  1  0  0  0  0
 19 20  1  0  0  0  0
 19 22  1  0  0  0  0
 20 21  1  0  0  0  0
 20 32  1  0  0  0  0
 20 33  1  0  0  0  0
 21 34  1  0  0  0  0
 21 35  1  0  0  0  0
 21 36  1  0  0  0  0
M  END
>  <HET>
 U05  A 999      22

>  <HETSYN>
     U05 1051U91

>  <HETNAM>
     U05 6,11-DIHYDRO-11-ETHYL-6-METHYL-9-NITRO-5H-PYRIDO[2,3-B]
   2 U05 [1,5]BENZODIAZEPIN-5-ONE

>  <FORMUL>
      U05    C15 H14 N4 O3

$$$$
