570.pdb
  rDOCK(R)          3D
libRbt.so/2013.1/901 2013/11/27
 43 47  0  0  0  0  0  0  0  0999 V2000
   47.1759  -40.1298   15.0435 N   0  0  0  0  0  0
   48.2657  -39.7490   14.0698 C   0  0  0  0  0  0
   48.3589  -38.2102   13.8265 C   0  0  0  0  0  0
   47.8473  -37.3531   14.9898 C   0  0  0  0  0  0
   48.7772  -36.9553   16.0058 C   0  0  0  0  0  0
   46.4737  -36.9507   15.0761 C   0  0  0  0  0  0
   48.3529  -36.1676   17.0928 C   0  0  0  0  0  0
   46.0374  -36.1600   16.1634 C   0  0  0  0  0  0
   46.9881  -35.7511   17.2044 C   0  0  0  0  0  0
   46.6910  -34.9555   18.3521 O   0  0  0  0  0  0
   46.7993  -41.3886   15.6816 C   0  0  0  0  0  0
   46.5102  -41.4516   17.1187 C   0  0  0  0  0  0
   46.1443  -42.7390   17.6607 C   0  0  0  0  0  0
   46.0690  -43.8929   16.8457 C   0  0  0  0  0  0
   46.3508  -43.8137   15.4698 C   0  0  0  0  0  0
   46.7075  -42.5924   14.8943 C   0  0  0  0  0  0
   45.4234  -39.4609   18.7968 C   0  0  0  0  0  0
   44.0769  -39.9873   18.7646 C   0  0  0  0  0  0
   43.0050  -39.2728   19.3734 C   0  0  0  0  0  0
   43.2637  -38.0283   20.0198 C   0  0  0  0  0  0
   44.5865  -37.5018   20.0554 C   0  0  0  0  0  0
   45.6542  -38.2100   19.4508 C   0  0  0  0  0  0
   46.5542  -40.2407   18.1435 C   0  0  0  0  0  0
   47.6819  -39.7951   18.4397 O   0  0  0  0  0  0
   50.2224  -34.0999   23.0946 O   0  0  0  0  0  0
   51.0664  -34.6001   22.1094 C   0  0  0  0  0  0
   50.2084  -35.0168   21.0645 N   0  0  0  0  0  0
   48.9164  -34.7594   21.4699 C   0  0  0  0  0  0
   48.8814  -34.1699   22.7835 C   0  0  0  0  0  0
   47.6759  -33.7294   23.6236 C   0  0  0  0  0  0
   52.4580  -34.6913   22.1180 C   0  0  0  0  0  0
   53.1995  -35.3214   21.0516 C   0  0  0  0  0  0
   54.6156  -35.3906   21.1137 C   0  0  0  0  0  0
   55.3073  -34.8419   22.2249 C   0  0  0  0  0  0
   54.5912  -34.2169   23.2819 C   0  0  0  0  0  0
   53.1767  -34.1426   23.2321 C   0  0  0  0  0  0
   47.7599  -34.4213   19.1701 C   0  0  0  0  0  0
   47.6963  -35.1056   20.5491 C   0  0  0  0  0  0
   50.1943  -39.7042   15.4234 O   0  0  0  0  0  0
   50.0930  -41.2892   13.8603 O   0  0  0  0  0  0
   49.5983  -40.3005   14.4936 C   0  0  0  0  0  0
   46.6006  -39.3736   15.3013 H   0  0  0  0  0  0
   51.0152  -41.4522   13.8925 H   0  0  0  0  0  0
  1  2  1  0  0  0
  1 11  1  0  0  0
  1 42  1  0  0  0
  2  3  1  0  0  0
  2 41  1  0  0  0
  3  4  1  0  0  0
  4  5  2  0  0  0
  4  6  1  0  0  0
  5  7  1  0  0  0
  6  8  2  0  0  0
  7  9  2  0  0  0
  8  9  1  0  0  0
  9 10  1  0  0  0
 10 37  1  0  0  0
 11 12  2  0  0  0
 11 16  1  0  0  0
 12 13  1  0  0  0
 12 23  1  0  0  0
 13 14  2  0  0  0
 14 15  1  0  0  0
 15 16  2  0  0  0
 17 18  2  0  0  0
 17 22  1  0  0  0
 17 23  1  0  0  0
 18 19  1  0  0  0
 19 20  2  0  0  0
 20 21  1  0  0  0
 21 22  2  0  0  0
 23 24  2  0  0  0
 25 26  1  0  0  0
 25 29  1  0  0  0
 26 27  2  0  0  0
 26 31  1  0  0  0
 27 28  1  0  0  0
 28 29  2  0  0  0
 28 38  1  0  0  0
 29 30  1  0  0  0
 31 32  2  0  0  0
 31 36  1  0  0  0
 32 33  1  0  0  0
 33 34  2  0  0  0
 34 35  1  0  0  0
 35 36  2  0  0  0
 37 38  1  0  0  0
 39 41  2  0  0  0
 40 41  1  0  0  0
 40 43  1  0  0  0
M  END
>  <CHROM.0>
163.05472284,66.05111844,-2.85699828,-65.77869169

>  <CHROM.1>
-172.56542340,133.69463246,26.28056608,-77.33661125,90.35486872,11.16620073
-113.20708761,105.14581783,14.82540955,175.69236170,-57.48174183,172.25948020
158.22156997,48.29781524,-37.71377115,18.49527669,-2.08326598,0.16245651
0.86252444

>  <FORMUL>
      570    C34 H30 N2 O5

>  <HET>
 570  D 200      41

>  <HETNAM>
     570 2-(2-BENZOYL-PHENYLAMINO)-3-{4-[2-(5-METHYL-2-PHENYL-OX
   2 570 AZOL-4-YL)-ETHOXY]-PHENYL}-PROPIONIC ACID

>  <HETSYN>
     570 GI262570

>  <Name>
570.pdb

>  <RI>
4.19364e+07

>  <Rbt.Current_Directory>
/home/malgorzata/Desktop/rDOCK_IFD/Wyniki/14_ppar-gamma

>  <Rbt.Executable>
rbdock ($Id: //depot/dev/client3/rdock/2013.1/src/exe/rbdock.cxx#4 $)

>  <Rbt.Library>
libRbt.so (2013.1, Build901 2013/11/27)

>  <Rbt.Parameter_File>
/home/malgorzata/Desktop/rDock_2013.1_src/data/scripts/soft_docking.prm

>  <Rbt.Receptor>
cavity.prm

>  <SCORE>
-14.7729

>  <SCORE.INTER>
-21.6654

>  <SCORE.INTER.CONST>
1

>  <SCORE.INTER.POLAR>
-0.379448

>  <SCORE.INTER.REPUL>
0

>  <SCORE.INTER.ROT>
12

>  <SCORE.INTER.VDW>
-37.7752

>  <SCORE.INTER.norm>
-0.528423

>  <SCORE.INTRA>
5.76956

>  <SCORE.INTRA.DIHEDRAL>
24.828

>  <SCORE.INTRA.DIHEDRAL.0>
12.9748

>  <SCORE.INTRA.POLAR>
0.058673

>  <SCORE.INTRA.POLAR.0>
-0.058673

>  <SCORE.INTRA.REPUL>
0

>  <SCORE.INTRA.REPUL.0>
0

>  <SCORE.INTRA.VDW>
0.604471

>  <SCORE.INTRA.VDW.0>
-4.98062

>  <SCORE.INTRA.norm>
0.140721

>  <SCORE.RESTR>
0.998294

>  <SCORE.RESTR.CAVITY>
0.998294

>  <SCORE.RESTR.norm>
0.0243486

>  <SCORE.SYSTEM>
0.124552

>  <SCORE.SYSTEM.CONST>
0

>  <SCORE.SYSTEM.DIHEDRAL>
5.4951

>  <SCORE.SYSTEM.POLAR>
-0.391727

>  <SCORE.SYSTEM.REPUL>
0.0467333

>  <SCORE.SYSTEM.VDW>
-1.52479

>  <SCORE.SYSTEM.norm>
0.00303785

>  <SCORE.heavy>
41

>  <SCORE.norm>
-0.360316

$$$$
570.pdb
  rDOCK(R)          3D
libRbt.so/2013.1/901 2013/11/27
 43 47  0  0  0  0  0  0  0  0999 V2000
   50.4252  -34.0153   21.2178 N   0  0  0  0  0  0
   49.4685  -32.9671   21.7342 C   0  0  0  0  0  0
   48.2210  -32.7717   20.8168 C   0  0  0  0  0  0
   47.8366  -34.0097   19.9987 C   0  0  0  0  0  0
   48.0077  -33.9685   18.5760 C   0  0  0  0  0  0
   47.3153  -35.1894   20.6254 C   0  0  0  0  0  0
   47.6686  -35.0818   17.7837 C   0  0  0  0  0  0
   46.9716  -36.3125   19.8392 C   0  0  0  0  0  0
   47.1467  -36.2725   18.3823 C   0  0  0  0  0  0
   46.8458  -37.3268   17.4677 O   0  0  0  0  0  0
   51.4181  -34.8693   21.8646 C   0  0  0  0  0  0
   52.7960  -34.9396   21.3652 C   0  0  0  0  0  0
   53.7079  -35.8096   22.0700 C   0  0  0  0  0  0
   53.2945  -36.5652   23.1922 C   0  0  0  0  0  0
   51.9689  -36.4861   23.6562 C   0  0  0  0  0  0
   51.0469  -35.6583   23.0122 C   0  0  0  0  0  0
   52.9766  -32.8191   19.5129 C   0  0  0  0  0  0
   53.2203  -31.5900   20.2348 C   0  0  0  0  0  0
   52.8417  -30.3349   19.6768 C   0  0  0  0  0  0
   52.2174  -30.2919   18.3953 C   0  0  0  0  0  0
   51.9725  -31.4975   17.6778 C   0  0  0  0  0  0
   52.3479  -32.7469   18.2303 C   0  0  0  0  0  0
   53.3912  -34.1484   20.1250 C   0  0  0  0  0  0
   54.3129  -34.7042   19.4930 O   0  0  0  0  0  0
   46.5141  -42.6547   15.3557 O   0  0  0  0  0  0
   46.2074  -42.8040   16.7036 C   0  0  0  0  0  0
   46.6453  -41.6066   17.3170 N   0  0  0  0  0  0
   47.1908  -40.8168   16.3276 C   0  0  0  0  0  0
   47.1304  -41.4624   15.0417 C   0  0  0  0  0  0
   47.6178  -40.9634   13.6754 C   0  0  0  0  0  0
   45.6049  -43.8855   17.3457 C   0  0  0  0  0  0
   45.5863  -44.0206   18.7828 C   0  0  0  0  0  0
   44.9628  -45.1448   19.3840 C   0  0  0  0  0  0
   44.3567  -46.1405   18.5743 C   0  0  0  0  0  0
   44.3657  -46.0206   17.1579 C   0  0  0  0  0  0
   44.9862  -44.9032   16.5455 C   0  0  0  0  0  0
   47.0826  -38.7069   17.8368 C   0  0  0  0  0  0
   47.7860  -39.4049   16.6570 C   0  0  0  0  0  0
   48.3286  -34.2687   23.3342 O   0  0  0  0  0  0
   49.3705  -32.4428   24.0730 O   0  0  0  0  0  0
   49.0470  -33.2566   23.1477 C   0  0  0  0  0  0
   50.3678  -34.1511   20.2444 H   0  0  0  0  0  0
   48.8198  -32.3452   24.8249 H   0  0  0  0  0  0
  1  2  1  0  0  0
  1 11  1  0  0  0
  1 42  1  0  0  0
  2  3  1  0  0  0
  2 41  1  0  0  0
  3  4  1  0  0  0
  4  5  2  0  0  0
  4  6  1  0  0  0
  5  7  1  0  0  0
  6  8  2  0  0  0
  7  9  2  0  0  0
  8  9  1  0  0  0
  9 10  1  0  0  0
 10 37  1  0  0  0
 11 12  2  0  0  0
 11 16  1  0  0  0
 12 13  1  0  0  0
 12 23  1  0  0  0
 13 14  2  0  0  0
 14 15  1  0  0  0
 15 16  2  0  0  0
 17 18  2  0  0  0
 17 22  1  0  0  0
 17 23  1  0  0  0
 18 19  1  0  0  0
 19 20  2  0  0  0
 20 21  1  0  0  0
 21 22  2  0  0  0
 23 24  2  0  0  0
 25 26  1  0  0  0
 25 29  1  0  0  0
 26 27  2  0  0  0
 26 31  1  0  0  0
 27 28  1  0  0  0
 28 29  2  0  0  0
 28 38  1  0  0  0
 29 30  1  0  0  0
 31 32  2  0  0  0
 31 36  1  0  0  0
 32 33  1  0  0  0
 33 34  2  0  0  0
 34 35  1  0  0  0
 35 36  2  0  0  0
 37 38  1  0  0  0
 39 41  2  0  0  0
 40 41  1  0  0  0
 40 43  1  0  0  0
M  END
>  <CHROM.0>
158.78905374,156.78065356,-66.36483546,-17.40459324

>  <CHROM.1>
-155.15424979,-128.82216114,27.03333528,-67.81889063,-111.60066298,143.19048973
-134.18267376,26.96087814,70.15127538,167.30398725,-30.97659243,-135.24338338
150.08525474,49.01565593,-37.02439301,19.33008406,0.27438005,1.06508400,1.62317385

>  <FORMUL>
      570    C34 H30 N2 O5

>  <HET>
 570  D 200      41

>  <HETNAM>
     570 2-(2-BENZOYL-PHENYLAMINO)-3-{4-[2-(5-METHYL-2-PHENYL-OX
   2 570 AZOL-4-YL)-ETHOXY]-PHENYL}-PROPIONIC ACID

>  <HETSYN>
     570 GI262570

>  <Name>
570.pdb

>  <RI>
4.19364e+07

>  <Rbt.Current_Directory>
/home/malgorzata/Desktop/rDOCK_IFD/Wyniki/14_ppar-gamma

>  <Rbt.Executable>
rbdock ($Id: //depot/dev/client3/rdock/2013.1/src/exe/rbdock.cxx#4 $)

>  <Rbt.Library>
libRbt.so (2013.1, Build901 2013/11/27)

>  <Rbt.Parameter_File>
/home/malgorzata/Desktop/rDock_2013.1_src/data/scripts/soft_docking.prm

>  <Rbt.Receptor>
cavity.prm

>  <SCORE>
-22.391

>  <SCORE.INTER>
-32.3421

>  <SCORE.INTER.CONST>
1

>  <SCORE.INTER.POLAR>
-2.3292

>  <SCORE.INTER.REPUL>
0

>  <SCORE.INTER.ROT>
12

>  <SCORE.INTER.VDW>
-41.8229

>  <SCORE.INTER.norm>
-0.788833

>  <SCORE.INTRA>
6.80382

>  <SCORE.INTRA.DIHEDRAL>
37.0897

>  <SCORE.INTRA.DIHEDRAL.0>
12.9748

>  <SCORE.INTRA.POLAR>
0.058673

>  <SCORE.INTRA.POLAR.0>
-0.058673

>  <SCORE.INTRA.REPUL>
0

>  <SCORE.INTRA.REPUL.0>
0

>  <SCORE.INTRA.VDW>
-0.813605

>  <SCORE.INTRA.VDW.0>
-4.98062

>  <SCORE.INTRA.norm>
0.165947

>  <SCORE.RESTR>
1.08893

>  <SCORE.RESTR.CAVITY>
1.08893

>  <SCORE.RESTR.norm>
0.0265592

>  <SCORE.SYSTEM>
2.05836

>  <SCORE.SYSTEM.CONST>
0

>  <SCORE.SYSTEM.DIHEDRAL>
8.81967

>  <SCORE.SYSTEM.POLAR>
-0.0692442

>  <SCORE.SYSTEM.REPUL>
0.0467333

>  <SCORE.SYSTEM.VDW>
-2.34971

>  <SCORE.SYSTEM.norm>
0.0502039

>  <SCORE.heavy>
41

>  <SCORE.norm>
-0.546123

$$$$
570.pdb
  rDOCK(R)          3D
libRbt.so/2013.1/901 2013/11/27
 43 47  0  0  0  0  0  0  0  0999 V2000
   47.9892  -35.6887   17.0532 N   0  0  0  0  0  0
   48.5945  -34.6514   16.1375 C   0  0  0  0  0  0
   49.9528  -35.1024   15.5149 C   0  0  0  0  0  0
   51.1905  -34.6292   16.2855 C   0  0  0  0  0  0
   51.8336  -33.4180   15.8677 C   0  0  0  0  0  0
   51.7075  -35.3693   17.3996 C   0  0  0  0  0  0
   52.9731  -32.9443   16.5455 C   0  0  0  0  0  0
   52.8510  -34.9027   18.0868 C   0  0  0  0  0  0
   53.5105  -33.6623   17.6610 C   0  0  0  0  0  0
   54.6654  -33.0733   18.2590 O   0  0  0  0  0  0
   46.6599  -35.8563   17.6349 C   0  0  0  0  0  0
   45.9158  -37.1105   17.4731 C   0  0  0  0  0  0
   44.6099  -37.1846   18.0849 C   0  0  0  0  0  0
   44.0664  -36.0967   18.8077 C   0  0  0  0  0  0
   44.7939  -34.9014   18.9514 C   0  0  0  0  0  0
   46.0626  -34.7776   18.3813 C   0  0  0  0  0  0
   46.9904  -39.7065   17.2162 C   0  0  0  0  0  0
   48.4028  -39.9728   17.0574 C   0  0  0  0  0  0
   48.9702  -41.1863   17.5425 C   0  0  0  0  0  0
   48.1370  -42.1455   18.1901 C   0  0  0  0  0  0
   46.7447  -41.8921   18.3499 C   0  0  0  0  0  0
   46.1778  -40.6863   17.8684 C   0  0  0  0  0  0
   46.4049  -38.4035   16.6938 C   0  0  0  0  0  0
   46.3690  -38.3559   15.4470 O   0  0  0  0  0  0
   55.3198  -35.6097   23.1457 O   0  0  0  0  0  0
   54.0302  -35.1382   22.9275 C   0  0  0  0  0  0
   54.1440  -34.2411   21.8394 N   0  0  0  0  0  0
   55.4720  -34.2122   21.4712 C   0  0  0  0  0  0
   56.2692  -35.0817   22.2973 C   0  0  0  0  0  0
   57.7776  -35.3575   22.2525 C   0  0  0  0  0  0
   52.8586  -35.4548   23.6146 C   0  0  0  0  0  0
   52.8689  -36.0539   24.9280 C   0  0  0  0  0  0
   51.6463  -36.3599   25.5802 C   0  0  0  0  0  0
   50.4096  -36.0793   24.9430 C   0  0  0  0  0  0
   50.3833  -35.4881   23.6505 C   0  0  0  0  0  0
   51.5976  -35.1789   22.9882 C   0  0  0  0  0  0
   55.6631  -33.9043   18.9002 C   0  0  0  0  0  0
   55.9633  -33.3082   20.2889 C   0  0  0  0  0  0
   46.8195  -33.3211   15.3417 O   0  0  0  0  0  0
   47.6247  -34.8676   13.9540 O   0  0  0  0  0  0
   47.6295  -34.2381   15.0617 C   0  0  0  0  0  0
   48.6209  -36.3984   17.3112 H   0  0  0  0  0  0
   47.0293  -34.6170   13.2752 H   0  0  0  0  0  0
  1  2  1  0  0  0
  1 11  1  0  0  0
  1 42  1  0  0  0
  2  3  1  0  0  0
  2 41  1  0  0  0
  3  4  1  0  0  0
  4  5  2  0  0  0
  4  6  1  0  0  0
  5  7  1  0  0  0
  6  8  2  0  0  0
  7  9  2  0  0  0
  8  9  1  0  0  0
  9 10  1  0  0  0
 10 37  1  0  0  0
 11 12  2  0  0  0
 11 16  1  0  0  0
 12 13  1  0  0  0
 12 23  1  0  0  0
 13 14  2  0  0  0
 14 15  1  0  0  0
 15 16  2  0  0  0
 17 18  2  0  0  0
 17 22  1  0  0  0
 17 23  1  0  0  0
 18 19  1  0  0  0
 19 20  2  0  0  0
 20 21  1  0  0  0
 21 22  2  0  0  0
 23 24  2  0  0  0
 25 26  1  0  0  0
 25 29  1  0  0  0
 26 27  2  0  0  0
 26 31  1  0  0  0
 27 28  1  0  0  0
 28 29  2  0  0  0
 28 38  1  0  0  0
 29 30  1  0  0  0
 31 32  2  0  0  0
 31 36  1  0  0  0
 32 33  1  0  0  0
 33 34  2  0  0  0
 34 35  1  0  0  0
 35 36  2  0  0  0
 37 38  1  0  0  0
 39 41  2  0  0  0
 40 41  1  0  0  0
 40 43  1  0  0  0
M  END
>  <CHROM.0>
173.23274556,78.42905130,16.95997303,151.56892686

>  <CHROM.1>
-165.59228633,126.38434939,-94.71485515,85.94200570,-94.70501105,-150.09860480
-130.95092007,100.73368043,-106.11571153,18.33476994,-78.33620171,111.92580999
-179.80479035,50.32445133,-35.95095287,18.96518761,-2.82454772,0.54549157
2.08959478

>  <FORMUL>
      570    C34 H30 N2 O5

>  <HET>
 570  D 200      41

>  <HETNAM>
     570 2-(2-BENZOYL-PHENYLAMINO)-3-{4-[2-(5-METHYL-2-PHENYL-OX
   2 570 AZOL-4-YL)-ETHOXY]-PHENYL}-PROPIONIC ACID

>  <HETSYN>
     570 GI262570

>  <Name>
570.pdb

>  <RI>
4.19364e+07

>  <Rbt.Current_Directory>
/home/malgorzata/Desktop/rDOCK_IFD/Wyniki/14_ppar-gamma

>  <Rbt.Executable>
rbdock ($Id: //depot/dev/client3/rdock/2013.1/src/exe/rbdock.cxx#4 $)

>  <Rbt.Library>
libRbt.so (2013.1, Build901 2013/11/27)

>  <Rbt.Parameter_File>
/home/malgorzata/Desktop/rDock_2013.1_src/data/scripts/soft_docking.prm

>  <Rbt.Receptor>
cavity.prm

>  <SCORE>
-11.6795

>  <SCORE.INTER>
-19.498

>  <SCORE.INTER.CONST>
1

>  <SCORE.INTER.POLAR>
-1.55966

>  <SCORE.INTER.REPUL>
0

>  <SCORE.INTER.ROT>
12

>  <SCORE.INTER.VDW>
-31.5952

>  <SCORE.INTER.norm>
-0.475561

>  <SCORE.INTRA>
8.39399

>  <SCORE.INTRA.DIHEDRAL>
41.9238

>  <SCORE.INTRA.DIHEDRAL.0>
12.9748

>  <SCORE.INTRA.POLAR>
0.058673

>  <SCORE.INTRA.POLAR.0>
-0.058673

>  <SCORE.INTRA.REPUL>
0

>  <SCORE.INTRA.REPUL.0>
0

>  <SCORE.INTRA.VDW>
-0.190255

>  <SCORE.INTRA.VDW.0>
-4.98062

>  <SCORE.INTRA.norm>
0.204732

>  <SCORE.RESTR>
0.732735

>  <SCORE.RESTR.CAVITY>
0.732735

>  <SCORE.RESTR.norm>
0.0178716

>  <SCORE.SYSTEM>
-1.30821

>  <SCORE.SYSTEM.CONST>
0

>  <SCORE.SYSTEM.DIHEDRAL>
3.23003

>  <SCORE.SYSTEM.POLAR>
-0.369777

>  <SCORE.SYSTEM.REPUL>
0.0467333

>  <SCORE.SYSTEM.VDW>
-1.89965

>  <SCORE.SYSTEM.norm>
-0.0319075

>  <SCORE.heavy>
41

>  <SCORE.norm>
-0.284865

$$$$
570.pdb
  rDOCK(R)          3D
libRbt.so/2013.1/901 2013/11/27
 43 47  0  0  0  0  0  0  0  0999 V2000
   47.9587  -36.8285   17.4614 N   0  0  0  0  0  0
   48.4936  -35.4671   17.0855 C   0  0  0  0  0  0
   50.0284  -35.3235   17.3300 C   0  0  0  0  0  0
   50.4026  -34.8277   18.7314 C   0  0  0  0  0  0
   50.3792  -33.4171   18.9858 C   0  0  0  0  0  0
   50.7713  -35.7396   19.7749 C   0  0  0  0  0  0
   50.7148  -32.9155   20.2577 C   0  0  0  0  0  0
   51.1102  -35.2464   21.0553 C   0  0  0  0  0  0
   51.0862  -33.8024   21.3180 C   0  0  0  0  0  0
   51.4006  -33.1654   22.5565 O   0  0  0  0  0  0
   46.6504  -37.4628   17.3220 C   0  0  0  0  0  0
   46.4319  -38.5407   16.3508 C   0  0  0  0  0  0
   45.1059  -39.1088   16.2854 C   0  0  0  0  0  0
   44.0591  -38.6475   17.1177 C   0  0  0  0  0  0
   44.2869  -37.6121   18.0422 C   0  0  0  0  0  0
   45.5515  -37.0293   18.1477 C   0  0  0  0  0  0
   48.3883  -40.3884   15.5030 C   0  0  0  0  0  0
   48.7420  -40.8709   16.8195 C   0  0  0  0  0  0
   49.5595  -42.0279   16.9715 C   0  0  0  0  0  0
   50.0320  -42.7150   15.8146 C   0  0  0  0  0  0
   49.6895  -42.2462   14.5142 C   0  0  0  0  0  0
   48.8769  -41.0960   14.3601 C   0  0  0  0  0  0
   47.5120  -39.1531   15.3625 C   0  0  0  0  0  0
   47.7449  -38.5124   14.3169 O   0  0  0  0  0  0
   54.1280  -36.6646   22.9315 O   0  0  0  0  0  0
   54.6903  -35.4715   22.4917 C   0  0  0  0  0  0
   53.9196  -34.4532   23.1005 N   0  0  0  0  0  0
   52.9460  -35.0733   23.8540 C   0  0  0  0  0  0
   53.0429  -36.5076   23.7669 C   0  0  0  0  0  0
   52.1747  -37.5861   24.4273 C   0  0  0  0  0  0
   55.7738  -35.2828   21.6340 C   0  0  0  0  0  0
   55.8317  -34.1946   20.6872 C   0  0  0  0  0  0
   56.9570  -34.0523   19.8344 C   0  0  0  0  0  0
   58.0285  -34.9801   19.9086 C   0  0  0  0  0  0
   57.9866  -36.0559   20.8368 C   0  0  0  0  0  0
   56.8677  -36.2094   21.6931 C   0  0  0  0  0  0
   50.7943  -33.6217   23.7898 C   0  0  0  0  0  0
   51.9000  -34.2375   24.6686 C   0  0  0  0  0  0
   47.8993  -33.9079   15.4214 O   0  0  0  0  0  0
   48.0540  -36.0418   14.7983 O   0  0  0  0  0  0
   48.1476  -35.1136   15.6661 C   0  0  0  0  0  0
   48.6304  -37.4079   17.8886 H   0  0  0  0  0  0
   47.3434  -36.0422   14.1875 H   0  0  0  0  0  0
  1  2  1  0  0  0
  1 11  1  0  0  0
  1 42  1  0  0  0
  2  3  1  0  0  0
  2 41  1  0  0  0
  3  4  1  0  0  0
  4  5  2  0  0  0
  4  6  1  0  0  0
  5  7  1  0  0  0
  6  8  2  0  0  0
  7  9  2  0  0  0
  8  9  1  0  0  0
  9 10  1  0  0  0
 10 37  1  0  0  0
 11 12  2  0  0  0
 11 16  1  0  0  0
 12 13  1  0  0  0
 12 23  1  0  0  0
 13 14  2  0  0  0
 14 15  1  0  0  0
 15 16  2  0  0  0
 17 18  2  0  0  0
 17 22  1  0  0  0
 17 23  1  0  0  0
 18 19  1  0  0  0
 19 20  2  0  0  0
 20 21  1  0  0  0
 21 22  2  0  0  0
 23 24  2  0  0  0
 25 26  1  0  0  0
 25 29  1  0  0  0
 26 27  2  0  0  0
 26 31  1  0  0  0
 27 28  1  0  0  0
 28 29  2  0  0  0
 28 38  1  0  0  0
 29 30  1  0  0  0
 31 32  2  0  0  0
 31 36  1  0  0  0
 32 33  1  0  0  0
 33 34  2  0  0  0
 34 35  1  0  0  0
 35 36  2  0  0  0
 37 38  1  0  0  0
 39 41  2  0  0  0
 40 41  1  0  0  0
 40 43  1  0  0  0
M  END
>  <CHROM.0>
-176.12093261,-44.70994580,-0.80459882,-24.40720806

>  <CHROM.1>
-174.44307645,108.39779588,-89.21223818,144.89966464,-83.21275297,130.10391902
112.74642305,96.05220287,-26.25656315,144.33726769,76.12732782,-39.11164194
136.23967276,50.56987510,-36.58833213,19.04477133,2.38974701,0.31602527,-2.44448869

>  <FORMUL>
      570    C34 H30 N2 O5

>  <HET>
 570  D 200      41

>  <HETNAM>
     570 2-(2-BENZOYL-PHENYLAMINO)-3-{4-[2-(5-METHYL-2-PHENYL-OX
   2 570 AZOL-4-YL)-ETHOXY]-PHENYL}-PROPIONIC ACID

>  <HETSYN>
     570 GI262570

>  <Name>
570.pdb

>  <RI>
4.19364e+07

>  <Rbt.Current_Directory>
/home/malgorzata/Desktop/rDOCK_IFD/Wyniki/14_ppar-gamma

>  <Rbt.Executable>
rbdock ($Id: //depot/dev/client3/rdock/2013.1/src/exe/rbdock.cxx#4 $)

>  <Rbt.Library>
libRbt.so (2013.1, Build901 2013/11/27)

>  <Rbt.Parameter_File>
/home/malgorzata/Desktop/rDock_2013.1_src/data/scripts/soft_docking.prm

>  <Rbt.Receptor>
cavity.prm

>  <SCORE>
-16.1662

>  <SCORE.INTER>
-24.1854

>  <SCORE.INTER.CONST>
1

>  <SCORE.INTER.POLAR>
-1.07333

>  <SCORE.INTER.REPUL>
0

>  <SCORE.INTER.ROT>
12

>  <SCORE.INTER.VDW>
-37.9361

>  <SCORE.INTER.norm>
-0.589888

>  <SCORE.INTRA>
8.0809

>  <SCORE.INTRA.DIHEDRAL>
47.5997

>  <SCORE.INTRA.DIHEDRAL.0>
12.9748

>  <SCORE.INTRA.POLAR>
0.058673

>  <SCORE.INTRA.POLAR.0>
-0.058673

>  <SCORE.INTRA.REPUL>
0

>  <SCORE.INTRA.REPUL.0>
0

>  <SCORE.INTRA.VDW>
-1.63854

>  <SCORE.INTRA.VDW.0>
-4.98062

>  <SCORE.INTRA.norm>
0.197095

>  <SCORE.RESTR>
1.11836

>  <SCORE.RESTR.CAVITY>
1.11836

>  <SCORE.RESTR.norm>
0.0272772

>  <SCORE.SYSTEM>
-1.18011

>  <SCORE.SYSTEM.CONST>
0

>  <SCORE.SYSTEM.DIHEDRAL>
1.97105

>  <SCORE.SYSTEM.POLAR>
-0.105492

>  <SCORE.SYSTEM.REPUL>
0.0467333

>  <SCORE.SYSTEM.VDW>
-2.04062

>  <SCORE.SYSTEM.norm>
-0.0287831

>  <SCORE.heavy>
41

>  <SCORE.norm>
-0.394299

$$$$
570.pdb
  rDOCK(R)          3D
libRbt.so/2013.1/901 2013/11/27
 43 47  0  0  0  0  0  0  0  0999 V2000
   50.4550  -34.6005   17.1249 N   0  0  0  0  0  0
   49.8872  -34.9421   15.7678 C   0  0  0  0  0  0
   48.3447  -35.1787   15.7915 C   0  0  0  0  0  0
   47.9274  -36.6479   15.6609 C   0  0  0  0  0  0
   46.7115  -36.9535   14.9655 C   0  0  0  0  0  0
   48.7220  -37.7045   16.2163 C   0  0  0  0  0  0
   46.2884  -38.2884   14.8203 C   0  0  0  0  0  0
   48.3061  -39.0480   16.0763 C   0  0  0  0  0  0
   47.0618  -39.3630   15.3641 C   0  0  0  0  0  0
   46.5224  -40.6667   15.1453 O   0  0  0  0  0  0
   49.8455  -34.2431   18.4033 C   0  0  0  0  0  0
   50.4583  -34.6486   19.6733 C   0  0  0  0  0  0
   49.7853  -34.2480   20.8864 C   0  0  0  0  0  0
   48.5854  -33.4992   20.8566 C   0  0  0  0  0  0
   48.0116  -33.1202   19.6294 C   0  0  0  0  0  0
   48.6230  -33.4799   18.4266 C   0  0  0  0  0  0
   52.5738  -35.8438   21.1073 C   0  0  0  0  0  0
   53.8485  -35.2126   21.3678 C   0  0  0  0  0  0
   54.5903  -35.5350   22.5408 C   0  0  0  0  0  0
   54.0699  -36.4882   23.4650 C   0  0  0  0  0  0
   52.8159  -37.1156   23.2160 C   0  0  0  0  0  0
   52.0762  -36.7970   22.0505 C   0  0  0  0  0  0
   51.7963  -35.4834   19.8507 C   0  0  0  0  0  0
   52.3574  -35.8752   18.8069 O   0  0  0  0  0  0
   44.9392  -44.5355   16.4372 O   0  0  0  0  0  0
   46.1638  -44.5572   17.0954 C   0  0  0  0  0  0
   47.0571  -43.8748   16.2364 N   0  0  0  0  0  0
   46.3406  -43.4924   15.1226 C   0  0  0  0  0  0
   44.9642  -43.9067   15.2109 C   0  0  0  0  0  0
   43.8183  -43.7048   14.2111 C   0  0  0  0  0  0
   46.4795  -45.1231   18.3303 C   0  0  0  0  0  0
   45.5365  -45.1754   19.4221 C   0  0  0  0  0  0
   45.9124  -45.7590   20.6598 C   0  0  0  0  0  0
   47.2168  -46.2920   20.8288 C   0  0  0  0  0  0
   48.1559  -46.2493   19.7625 C   0  0  0  0  0  0
   47.7930  -45.6679   18.5219 C   0  0  0  0  0  0
   46.5398  -41.2542   13.8218 C   0  0  0  0  0  0
   47.0262  -42.7106   13.9499 C   0  0  0  0  0  0
   50.2750  -32.7080   15.1263 O   0  0  0  0  0  0
   50.4425  -34.2599   13.5360 O   0  0  0  0  0  0
   50.2485  -33.9030   14.7436 C   0  0  0  0  0  0
   51.4388  -34.6233   17.1539 H   0  0  0  0  0  0
   50.6574  -33.6193   12.8868 H   0  0  0  0  0  0
  1  2  1  0  0  0
  1 11  1  0  0  0
  1 42  1  0  0  0
  2  3  1  0  0  0
  2 41  1  0  0  0
  3  4  1  0  0  0
  4  5  2  0  0  0
  4  6  1  0  0  0
  5  7  1  0  0  0
  6  8  2  0  0  0
  7  9  2  0  0  0
  8  9  1  0  0  0
  9 10  1  0  0  0
 10 37  1  0  0  0
 11 12  2  0  0  0
 11 16  1  0  0  0
 12 13  1  0  0  0
 12 23  1  0  0  0
 13 14  2  0  0  0
 14 15  1  0  0  0
 15 16  2  0  0  0
 17 18  2  0  0  0
 17 22  1  0  0  0
 17 23  1  0  0  0
 18 19  1  0  0  0
 19 20  2  0  0  0
 20 21  1  0  0  0
 21 22  2  0  0  0
 23 24  2  0  0  0
 25 26  1  0  0  0
 25 29  1  0  0  0
 26 27  2  0  0  0
 26 31  1  0  0  0
 27 28  1  0  0  0
 28 29  2  0  0  0
 28 38  1  0  0  0
 29 30  1  0  0  0
 31 32  2  0  0  0
 31 36  1  0  0  0
 32 33  1  0  0  0
 33 34  2  0  0  0
 34 35  1  0  0  0
 35 36  2  0  0  0
 37 38  1  0  0  0
 39 41  2  0  0  0
 40 41  1  0  0  0
 40 43  1  0  0  0
M  END
>  <CHROM.0>
-9.86716320,61.36304895,-107.27090403,-21.97411948

>  <CHROM.1>
-11.28329719,146.25186119,-106.20429003,-36.76064741,-146.32813717,71.31722852
134.41043016,173.80058000,-108.72328093,-33.09594864,-111.58153520,45.67731722
179.21022597,48.73678800,-38.71128582,17.71998010,0.65992844,-0.96068639
-0.58475771

>  <FORMUL>
      570    C34 H30 N2 O5

>  <HET>
 570  D 200      41

>  <HETNAM>
     570 2-(2-BENZOYL-PHENYLAMINO)-3-{4-[2-(5-METHYL-2-PHENYL-OX
   2 570 AZOL-4-YL)-ETHOXY]-PHENYL}-PROPIONIC ACID

>  <HETSYN>
     570 GI262570

>  <Name>
570.pdb

>  <RI>
4.19364e+07

>  <Rbt.Current_Directory>
/home/malgorzata/Desktop/rDOCK_IFD/Wyniki/14_ppar-gamma

>  <Rbt.Executable>
rbdock ($Id: //depot/dev/client3/rdock/2013.1/src/exe/rbdock.cxx#4 $)

>  <Rbt.Library>
libRbt.so (2013.1, Build901 2013/11/27)

>  <Rbt.Parameter_File>
/home/malgorzata/Desktop/rDock_2013.1_src/data/scripts/soft_docking.prm

>  <Rbt.Receptor>
cavity.prm

>  <SCORE>
-19.2369

>  <SCORE.INTER>
-30.3042

>  <SCORE.INTER.CONST>
1

>  <SCORE.INTER.POLAR>
-0.477283

>  <SCORE.INTER.REPUL>
0

>  <SCORE.INTER.ROT>
12

>  <SCORE.INTER.VDW>
-46.0815

>  <SCORE.INTER.norm>
-0.739128

>  <SCORE.INTRA>
6.16156

>  <SCORE.INTRA.DIHEDRAL>
29.1504

>  <SCORE.INTRA.DIHEDRAL.0>
12.9748

>  <SCORE.INTRA.POLAR>
0.0540353

>  <SCORE.INTRA.POLAR.0>
-0.058673

>  <SCORE.INTRA.REPUL>
0

>  <SCORE.INTRA.REPUL.0>
0

>  <SCORE.INTRA.VDW>
0.147771

>  <SCORE.INTRA.VDW.0>
-4.98062

>  <SCORE.INTRA.norm>
0.150282

>  <SCORE.RESTR>
0.800813

>  <SCORE.RESTR.CAVITY>
0.800813

>  <SCORE.RESTR.norm>
0.019532

>  <SCORE.SYSTEM>
4.10494

>  <SCORE.SYSTEM.CONST>
0

>  <SCORE.SYSTEM.DIHEDRAL>
11.7507

>  <SCORE.SYSTEM.POLAR>
-0.0922992

>  <SCORE.SYSTEM.REPUL>
0.0467333

>  <SCORE.SYSTEM.VDW>
-1.69024

>  <SCORE.SYSTEM.norm>
0.100121

>  <SCORE.heavy>
41

>  <SCORE.norm>
-0.469193

$$$$
570.pdb
  rDOCK(R)          3D
libRbt.so/2013.1/901 2013/11/27
 43 47  0  0  0  0  0  0  0  0999 V2000
   47.0542  -42.9177   16.3356 N   0  0  0  0  0  0
   46.4603  -44.1365   17.0011 C   0  0  0  0  0  0
   45.4493  -43.7825   18.1361 C   0  0  0  0  0  0
   45.5116  -42.3255   18.6079 C   0  0  0  0  0  0
   46.7973  -41.7436   18.8604 C   0  0  0  0  0  0
   44.3217  -41.5484   18.7989 C   0  0  0  0  0  0
   46.9037  -40.4086   19.2947 C   0  0  0  0  0  0
   44.4174  -40.2074   19.2348 C   0  0  0  0  0  0
   45.7330  -39.6095   19.4932 C   0  0  0  0  0  0
   45.9804  -38.2738   19.9328 O   0  0  0  0  0  0
   48.4075  -42.5696   15.9102 C   0  0  0  0  0  0
   48.6354  -41.6315   14.8053 C   0  0  0  0  0  0
   50.0074  -41.3461   14.4566 C   0  0  0  0  0  0
   51.0880  -41.9449   15.1459 C   0  0  0  0  0  0
   50.8503  -42.8431   16.2020 C   0  0  0  0  0  0
   49.5423  -43.1521   16.5812 C   0  0  0  0  0  0
   46.8561  -39.5384   14.1627 C   0  0  0  0  0  0
   47.6558  -38.3981   14.5519 C   0  0  0  0  0  0
   47.0513  -37.1233   14.7508 C   0  0  0  0  0  0
   45.6457  -36.9720   14.5640 C   0  0  0  0  0  0
   44.8502  -38.0898   14.1819 C   0  0  0  0  0  0
   45.4485  -39.3585   13.9835 C   0  0  0  0  0  0
   47.5213  -40.8900   13.9525 C   0  0  0  0  0  0
   47.0533  -41.5117   12.9767 O   0  0  0  0  0  0
   47.9195  -34.0355   18.4381 O   0  0  0  0  0  0
   48.1851  -34.5513   19.7016 C   0  0  0  0  0  0
   47.1399  -35.4712   19.9525 N   0  0  0  0  0  0
   46.3097  -35.4558   18.8522 C   0  0  0  0  0  0
   46.7769  -34.5335   17.8496 C   0  0  0  0  0  0
   46.1721  -34.1897   16.4824 C   0  0  0  0  0  0
   49.2389  -34.2473   20.5631 C   0  0  0  0  0  0
   50.3710  -33.4517   20.1514 C   0  0  0  0  0  0
   51.4186  -33.1765   21.0683 C   0  0  0  0  0  0
   51.3575  -33.6837   22.3925 C   0  0  0  0  0  0
   50.2485  -34.4673   22.8130 C   0  0  0  0  0  0
   49.1966  -34.7501   21.9063 C   0  0  0  0  0  0
   44.9002  -37.3116   19.9970 C   0  0  0  0  0  0
   45.0320  -36.3614   18.7913 C   0  0  0  0  0  0
   44.8776  -45.7740   16.3953 O   0  0  0  0  0  0
   46.3147  -45.1257   14.8205 O   0  0  0  0  0  0
   45.8278  -45.0579   15.9959 C   0  0  0  0  0  0
   46.3928  -42.2125   16.1502 H   0  0  0  0  0  0
   47.1997  -44.8607   14.6639 H   0  0  0  0  0  0
  1  2  1  0  0  0
  1 11  1  0  0  0
  1 42  1  0  0  0
  2  3  1  0  0  0
  2 41  1  0  0  0
  3  4  1  0  0  0
  4  5  2  0  0  0
  4  6  1  0  0  0
  5  7  1  0  0  0
  6  8  2  0  0  0
  7  9  2  0  0  0
  8  9  1  0  0  0
  9 10  1  0  0  0
 10 37  1  0  0  0
 11 12  2  0  0  0
 11 16  1  0  0  0
 12 13  1  0  0  0
 12 23  1  0  0  0
 13 14  2  0  0  0
 14 15  1  0  0  0
 15 16  2  0  0  0
 17 18  2  0  0  0
 17 22  1  0  0  0
 17 23  1  0  0  0
 18 19  1  0  0  0
 19 20  2  0  0  0
 20 21  1  0  0  0
 21 22  2  0  0  0
 23 24  2  0  0  0
 25 26  1  0  0  0
 25 29  1  0  0  0
 26 27  2  0  0  0
 26 31  1  0  0  0
 27 28  1  0  0  0
 28 29  2  0  0  0
 28 38  1  0  0  0
 29 30  1  0  0  0
 31 32  2  0  0  0
 31 36  1  0  0  0
 32 33  1  0  0  0
 33 34  2  0  0  0
 34 35  1  0  0  0
 35 36  2  0  0  0
 37 38  1  0  0  0
 39 41  2  0  0  0
 40 41  1  0  0  0
 40 43  1  0  0  0
M  END
>  <CHROM.0>
60.58116189,-51.43896404,-178.01519387,86.95750741

>  <CHROM.1>
136.89238357,152.89450711,-14.92821895,-152.03060298,-45.85068727,171.63716320
-103.64018799,91.03283561,42.72360385,-9.91494068,-4.94963473,-66.67264168
21.38901430,47.28913248,-39.12160200,17.49099245,2.70340357,-1.36832227,-1.54433096

>  <FORMUL>
      570    C34 H30 N2 O5

>  <HET>
 570  D 200      41

>  <HETNAM>
     570 2-(2-BENZOYL-PHENYLAMINO)-3-{4-[2-(5-METHYL-2-PHENYL-OX
   2 570 AZOL-4-YL)-ETHOXY]-PHENYL}-PROPIONIC ACID

>  <HETSYN>
     570 GI262570

>  <Name>
570.pdb

>  <RI>
4.19364e+07

>  <Rbt.Current_Directory>
/home/malgorzata/Desktop/rDOCK_IFD/Wyniki/14_ppar-gamma

>  <Rbt.Executable>
rbdock ($Id: //depot/dev/client3/rdock/2013.1/src/exe/rbdock.cxx#4 $)

>  <Rbt.Library>
libRbt.so (2013.1, Build901 2013/11/27)

>  <Rbt.Parameter_File>
/home/malgorzata/Desktop/rDock_2013.1_src/data/scripts/soft_docking.prm

>  <Rbt.Receptor>
cavity.prm

>  <SCORE>
-15.8567

>  <SCORE.INTER>
-22.0157

>  <SCORE.INTER.CONST>
1

>  <SCORE.INTER.POLAR>
-0.491445

>  <SCORE.INTER.REPUL>
0

>  <SCORE.INTER.ROT>
12

>  <SCORE.INTER.VDW>
-37.7448

>  <SCORE.INTER.norm>
-0.536968

>  <SCORE.INTRA>
6.93362

>  <SCORE.INTRA.DIHEDRAL>
29.7937

>  <SCORE.INTRA.DIHEDRAL.0>
12.9748

>  <SCORE.INTRA.POLAR>
0.058673

>  <SCORE.INTRA.POLAR.0>
-0.058673

>  <SCORE.INTRA.REPUL>
0

>  <SCORE.INTRA.REPUL.0>
0

>  <SCORE.INTRA.VDW>
0.775395

>  <SCORE.INTRA.VDW.0>
-4.98062

>  <SCORE.INTRA.norm>
0.169113

>  <SCORE.RESTR>
0.780256

>  <SCORE.RESTR.CAVITY>
0.780256

>  <SCORE.RESTR.norm>
0.0190306

>  <SCORE.SYSTEM>
-1.55486

>  <SCORE.SYSTEM.CONST>
0

>  <SCORE.SYSTEM.DIHEDRAL>
5.14999

>  <SCORE.SYSTEM.POLAR>
-0.492959

>  <SCORE.SYSTEM.REPUL>
0.0467333

>  <SCORE.SYSTEM.VDW>
-2.68746

>  <SCORE.SYSTEM.norm>
-0.0379234

>  <SCORE.heavy>
41

>  <SCORE.norm>
-0.386749

$$$$
570.pdb
  rDOCK(R)          3D
libRbt.so/2013.1/901 2013/11/27
 43 47  0  0  0  0  0  0  0  0999 V2000
   47.4285  -35.5386   14.5106 N   0  0  0  0  0  0
   47.8966  -34.1408   14.1820 C   0  0  0  0  0  0
   47.8669  -33.1804   15.4119 C   0  0  0  0  0  0
   48.6102  -33.7070   16.6446 C   0  0  0  0  0  0
   48.2832  -35.0147   17.1327 C   0  0  0  0  0  0
   49.6113  -32.9228   17.3074 C   0  0  0  0  0  0
   48.9401  -35.5402   18.2616 C   0  0  0  0  0  0
   50.2766  -33.4409   18.4416 C   0  0  0  0  0  0
   49.9436  -34.7800   18.9425 C   0  0  0  0  0  0
   50.5322  -35.4289   20.0698 O   0  0  0  0  0  0
   47.1565  -36.7200   13.6959 C   0  0  0  0  0  0
   46.8656  -38.0170   14.3174 C   0  0  0  0  0  0
   46.6072  -39.1279   13.4318 C   0  0  0  0  0  0
   46.6349  -38.9777   12.0254 C   0  0  0  0  0  0
   46.9169  -37.7267   11.4473 C   0  0  0  0  0  0
   47.1719  -36.6189   12.2583 C   0  0  0  0  0  0
   45.9820  -37.6673   16.9739 C   0  0  0  0  0  0
   44.5549  -37.5043   16.8064 C   0  0  0  0  0  0
   43.7707  -36.8940   17.8276 C   0  0  0  0  0  0
   44.3998  -36.4408   19.0244 C   0  0  0  0  0  0
   45.8048  -36.5962   19.1974 C   0  0  0  0  0  0
   46.5871  -37.2026   18.1837 C   0  0  0  0  0  0
   46.8006  -38.3240   15.8730 C   0  0  0  0  0  0
   47.5741  -39.2030   16.3056 O   0  0  0  0  0  0
   54.2203  -36.2596   22.1380 O   0  0  0  0  0  0
   54.0960  -35.0758   21.4196 C   0  0  0  0  0  0
   52.7209  -34.7488   21.4810 N   0  0  0  0  0  0
   52.0983  -35.7381   22.2116 C   0  0  0  0  0  0
   53.0347  -36.7399   22.6515 C   0  0  0  0  0  0
   52.7894  -38.0098   23.4764 C   0  0  0  0  0  0
   55.0874  -34.3458   20.7644 C   0  0  0  0  0  0
   56.4444  -34.8221   20.6385 C   0  0  0  0  0  0
   57.4151  -34.0358   19.9651 C   0  0  0  0  0  0
   57.0554  -32.7782   19.4145 C   0  0  0  0  0  0
   55.7229  -32.2964   19.5291 C   0  0  0  0  0  0
   54.7446  -33.0718   20.2003 C   0  0  0  0  0  0
   49.7124  -35.8350   21.1923 C   0  0  0  0  0  0
   50.5539  -35.6972   22.4755 C   0  0  0  0  0  0
   50.0765  -35.0102   13.9686 O   0  0  0  0  0  0
   49.5538  -33.2657   12.6845 O   0  0  0  0  0  0
   49.2609  -34.1524   13.5513 C   0  0  0  0  0  0
   47.2750  -35.6833   15.4723 H   0  0  0  0  0  0
   49.7483  -33.5181   11.8033 H   0  0  0  0  0  0
  1  2  1  0  0  0
  1 11  1  0  0  0
  1 42  1  0  0  0
  2  3  1  0  0  0
  2 41  1  0  0  0
  3  4  1  0  0  0
  4  5  2  0  0  0
  4  6  1  0  0  0
  5  7  1  0  0  0
  6  8  2  0  0  0
  7  9  2  0  0  0
  8  9  1  0  0  0
  9 10  1  0  0  0
 10 37  1  0  0  0
 11 12  2  0  0  0
 11 16  1  0  0  0
 12 13  1  0  0  0
 12 23  1  0  0  0
 13 14  2  0  0  0
 14 15  1  0  0  0
 15 16  2  0  0  0
 17 18  2  0  0  0
 17 22  1  0  0  0
 17 23  1  0  0  0
 18 19  1  0  0  0
 19 20  2  0  0  0
 20 21  1  0  0  0
 21 22  2  0  0  0
 23 24  2  0  0  0
 25 26  1  0  0  0
 25 29  1  0  0  0
 26 27  2  0  0  0
 26 31  1  0  0  0
 27 28  1  0  0  0
 28 29  2  0  0  0
 28 38  1  0  0  0
 29 30  1  0  0  0
 31 32  2  0  0  0
 31 36  1  0  0  0
 32 33  1  0  0  0
 33 34  2  0  0  0
 34 35  1  0  0  0
 35 36  2  0  0  0
 37 38  1  0  0  0
 39 41  2  0  0  0
 40 41  1  0  0  0
 40 43  1  0  0  0
M  END
>  <CHROM.0>
68.33679375,43.11165580,91.94124235,15.22365193

>  <CHROM.1>
172.90831678,172.21145652,52.96036453,-36.04401280,-52.66499052,-59.95259158
-146.64320024,54.75228928,50.98810802,6.11127963,64.83861470,-22.85617422
-116.80862939,49.79520910,-35.67068898,17.70389259,-2.54861503,0.45887460
1.84059323

>  <FORMUL>
      570    C34 H30 N2 O5

>  <HET>
 570  D 200      41

>  <HETNAM>
     570 2-(2-BENZOYL-PHENYLAMINO)-3-{4-[2-(5-METHYL-2-PHENYL-OX
   2 570 AZOL-4-YL)-ETHOXY]-PHENYL}-PROPIONIC ACID

>  <HETSYN>
     570 GI262570

>  <Name>
570.pdb

>  <RI>
4.19364e+07

>  <Rbt.Current_Directory>
/home/malgorzata/Desktop/rDOCK_IFD/Wyniki/14_ppar-gamma

>  <Rbt.Executable>
rbdock ($Id: //depot/dev/client3/rdock/2013.1/src/exe/rbdock.cxx#4 $)

>  <Rbt.Library>
libRbt.so (2013.1, Build901 2013/11/27)

>  <Rbt.Parameter_File>
/home/malgorzata/Desktop/rDock_2013.1_src/data/scripts/soft_docking.prm

>  <Rbt.Receptor>
cavity.prm

>  <SCORE>
-13.922

>  <SCORE.INTER>
-28.7729

>  <SCORE.INTER.CONST>
1

>  <SCORE.INTER.POLAR>
-1.42042

>  <SCORE.INTER.REPUL>
0.568902

>  <SCORE.INTER.ROT>
12

>  <SCORE.INTER.VDW>
-44.188

>  <SCORE.INTER.norm>
-0.701779

>  <SCORE.INTRA>
13.0666

>  <SCORE.INTRA.DIHEDRAL>
39.284

>  <SCORE.INTRA.DIHEDRAL.0>
12.9748

>  <SCORE.INTRA.POLAR>
0.058673

>  <SCORE.INTRA.POLAR.0>
-0.058673

>  <SCORE.INTRA.REPUL>
0

>  <SCORE.INTRA.REPUL.0>
0

>  <SCORE.INTRA.VDW>
5.01035

>  <SCORE.INTRA.VDW.0>
-4.98062

>  <SCORE.INTRA.norm>
0.318698

>  <SCORE.RESTR>
0.557774

>  <SCORE.RESTR.CAVITY>
0.557774

>  <SCORE.RESTR.norm>
0.0136042

>  <SCORE.SYSTEM>
1.22648

>  <SCORE.SYSTEM.CONST>
0

>  <SCORE.SYSTEM.DIHEDRAL>
6.79576

>  <SCORE.SYSTEM.POLAR>
-0.046205

>  <SCORE.SYSTEM.REPUL>
0.0467333

>  <SCORE.SYSTEM.VDW>
-2.24797

>  <SCORE.SYSTEM.norm>
0.0299142

>  <SCORE.heavy>
41

>  <SCORE.norm>
-0.339562

$$$$
570.pdb
  rDOCK(R)          3D
libRbt.so/2013.1/901 2013/11/27
 43 47  0  0  0  0  0  0  0  0999 V2000
   52.4477  -34.1769   21.2738 N   0  0  0  0  0  0
   52.3756  -32.9888   20.3443 C   0  0  0  0  0  0
   50.9191  -32.6468   19.8998 C   0  0  0  0  0  0
   50.1506  -33.8242   19.2892 C   0  0  0  0  0  0
   49.6270  -34.8279   20.1686 C   0  0  0  0  0  0
   49.9520  -33.9354   17.8734 C   0  0  0  0  0  0
   48.9141  -35.9271   19.6532 C   0  0  0  0  0  0
   49.2380  -35.0351   17.3456 C   0  0  0  0  0  0
   48.7004  -36.0635   18.2446 C   0  0  0  0  0  0
   47.9615  -37.2214   17.8548 O   0  0  0  0  0  0
   53.5483  -35.0149   21.7430 C   0  0  0  0  0  0
   53.4360  -35.7846   22.9871 C   0  0  0  0  0  0
   54.5744  -36.5862   23.3701 C   0  0  0  0  0  0
   55.7500  -36.6286   22.5844 C   0  0  0  0  0  0
   55.8401  -35.8829   21.3950 C   0  0  0  0  0  0
   54.7671  -35.0927   20.9777 C   0  0  0  0  0  0
   52.1013  -36.1014   25.4525 C   0  0  0  0  0  0
   52.7225  -37.2865   26.0008 C   0  0  0  0  0  0
   52.6605  -37.5563   27.3984 C   0  0  0  0  0  0
   51.9797  -36.6490   28.2627 C   0  0  0  0  0  0
   51.3640  -35.4800   27.7313 C   0  0  0  0  0  0
   51.4241  -35.2092   26.3420 C   0  0  0  0  0  0
   52.1815  -35.8302   23.9580 C   0  0  0  0  0  0
   51.0589  -35.6782   23.4340 O   0  0  0  0  0  0
   46.8713  -41.1875   15.5065 O   0  0  0  0  0  0
   46.6869  -39.9239   14.9568 C   0  0  0  0  0  0
   46.6219  -39.0452   16.0638 N   0  0  0  0  0  0
   46.7589  -39.8112   17.2016 C   0  0  0  0  0  0
   46.9174  -41.2069   16.8840 C   0  0  0  0  0  0
   47.0941  -42.4073   17.8227 C   0  0  0  0  0  0
   46.5797  -39.5651   13.6134 C   0  0  0  0  0  0
   46.6460  -40.5340   12.5453 C   0  0  0  0  0  0
   46.5358  -40.1130   11.1946 C   0  0  0  0  0  0
   46.3615  -38.7380   10.8892 C   0  0  0  0  0  0
   46.2929  -37.7723   11.9301 C   0  0  0  0  0  0
   46.4028  -38.1801   13.2830 C   0  0  0  0  0  0
   46.7778  -37.6168   18.5892 C   0  0  0  0  0  0
   46.7276  -39.1563   18.6252 C   0  0  0  0  0  0
   53.7787  -31.9724   21.9418 O   0  0  0  0  0  0
   52.7919  -30.6292   20.4627 O   0  0  0  0  0  0
   53.0447  -31.7825   20.9416 C   0  0  0  0  0  0
   51.5724  -34.4411   21.6388 H   0  0  0  0  0  0
   53.4565  -29.9687   20.4562 H   0  0  0  0  0  0
  1  2  1  0  0  0
  1 11  1  0  0  0
  1 42  1  0  0  0
  2  3  1  0  0  0
  2 41  1  0  0  0
  3  4  1  0  0  0
  4  5  2  0  0  0
  4  6  1  0  0  0
  5  7  1  0  0  0
  6  8  2  0  0  0
  7  9  2  0  0  0
  8  9  1  0  0  0
  9 10  1  0  0  0
 10 37  1  0  0  0
 11 12  2  0  0  0
 11 16  1  0  0  0
 12 13  1  0  0  0
 12 23  1  0  0  0
 13 14  2  0  0  0
 14 15  1  0  0  0
 15 16  2  0  0  0
 17 18  2  0  0  0
 17 22  1  0  0  0
 17 23  1  0  0  0
 18 19  1  0  0  0
 19 20  2  0  0  0
 20 21  1  0  0  0
 21 22  2  0  0  0
 23 24  2  0  0  0
 25 26  1  0  0  0
 25 29  1  0  0  0
 26 27  2  0  0  0
 26 31  1  0  0  0
 27 28  1  0  0  0
 28 29  2  0  0  0
 28 38  1  0  0  0
 29 30  1  0  0  0
 31 32  2  0  0  0
 31 36  1  0  0  0
 32 33  1  0  0  0
 33 34  2  0  0  0
 34 35  1  0  0  0
 35 36  2  0  0  0
 37 38  1  0  0  0
 39 41  2  0  0  0
 40 41  1  0  0  0
 40 43  1  0  0  0
M  END
>  <CHROM.0>
59.40246812,171.76093039,31.83259077,152.40235730

>  <CHROM.1>
166.49692381,157.74007271,-53.59809456,14.01802012,76.70816510,43.67049274
-144.01693456,-152.95939241,-52.18332175,0.30116207,-9.88402415,-56.15694426
-147.08232194,50.15664994,-36.57704780,19.65746814,-0.49331990,-0.95743018
-1.00659553

>  <FORMUL>
      570    C34 H30 N2 O5

>  <HET>
 570  D 200      41

>  <HETNAM>
     570 2-(2-BENZOYL-PHENYLAMINO)-3-{4-[2-(5-METHYL-2-PHENYL-OX
   2 570 AZOL-4-YL)-ETHOXY]-PHENYL}-PROPIONIC ACID

>  <HETSYN>
     570 GI262570

>  <Name>
570.pdb

>  <RI>
4.19364e+07

>  <Rbt.Current_Directory>
/home/malgorzata/Desktop/rDOCK_IFD/Wyniki/14_ppar-gamma

>  <Rbt.Executable>
rbdock ($Id: //depot/dev/client3/rdock/2013.1/src/exe/rbdock.cxx#4 $)

>  <Rbt.Library>
libRbt.so (2013.1, Build901 2013/11/27)

>  <Rbt.Parameter_File>
/home/malgorzata/Desktop/rDock_2013.1_src/data/scripts/soft_docking.prm

>  <Rbt.Receptor>
cavity.prm

>  <SCORE>
-16.5429

>  <SCORE.INTER>
-21.2495

>  <SCORE.INTER.CONST>
1

>  <SCORE.INTER.POLAR>
-0.731843

>  <SCORE.INTER.REPUL>
0.308796

>  <SCORE.INTER.ROT>
12

>  <SCORE.INTER.VDW>
-37.7052

>  <SCORE.INTER.norm>
-0.51828

>  <SCORE.INTRA>
6.1776

>  <SCORE.INTRA.DIHEDRAL>
21.9651

>  <SCORE.INTRA.DIHEDRAL.0>
12.9748

>  <SCORE.INTRA.POLAR>
0.058673

>  <SCORE.INTRA.POLAR.0>
-0.058673

>  <SCORE.INTRA.REPUL>
0

>  <SCORE.INTRA.REPUL.0>
0

>  <SCORE.INTRA.VDW>
1.58508

>  <SCORE.INTRA.VDW.0>
-4.98062

>  <SCORE.INTRA.norm>
0.150673

>  <SCORE.RESTR>
0.607913

>  <SCORE.RESTR.CAVITY>
0.607913

>  <SCORE.RESTR.norm>
0.0148271

>  <SCORE.SYSTEM>
-2.07894

>  <SCORE.SYSTEM.CONST>
0

>  <SCORE.SYSTEM.DIHEDRAL>
2.64516

>  <SCORE.SYSTEM.POLAR>
-0.36077

>  <SCORE.SYSTEM.REPUL>
0.0467333

>  <SCORE.SYSTEM.VDW>
-2.40856

>  <SCORE.SYSTEM.norm>
-0.0507058

>  <SCORE.heavy>
41

>  <SCORE.norm>
-0.403486

$$$$
570.pdb
  rDOCK(R)          3D
libRbt.so/2013.1/901 2013/11/27
 43 47  0  0  0  0  0  0  0  0999 V2000
   46.5644  -38.6321   15.2545 N   0  0  0  0  0  0
   46.3687  -37.8018   16.5008 C   0  0  0  0  0  0
   46.6977  -36.2911   16.2877 C   0  0  0  0  0  0
   48.0327  -35.8423   16.8926 C   0  0  0  0  0  0
   48.0190  -34.8133   17.8907 C   0  0  0  0  0  0
   49.2758  -36.4264   16.4805 C   0  0  0  0  0  0
   49.2205  -34.3693   18.4747 C   0  0  0  0  0  0
   50.4878  -35.9877   17.0604 C   0  0  0  0  0  0
   50.4757  -34.9346   18.0830 C   0  0  0  0  0  0
   51.6161  -34.3970   18.7531 O   0  0  0  0  0  0
   47.1787  -39.9337   15.0056 C   0  0  0  0  0  0
   47.6319  -40.3120   13.6624 C   0  0  0  0  0  0
   48.2290  -41.6183   13.5128 C   0  0  0  0  0  0
   48.3704  -42.4995   14.6104 C   0  0  0  0  0  0
   47.9288  -42.1201   15.8910 C   0  0  0  0  0  0
   47.3462  -40.8670   16.0911 C   0  0  0  0  0  0
   46.3544  -38.6839   11.7447 C   0  0  0  0  0  0
   46.5083  -37.9984   10.4808 C   0  0  0  0  0  0
   45.4116  -37.3015    9.8965 C   0  0  0  0  0  0
   44.1519  -37.2808   10.5646 C   0  0  0  0  0  0
   43.9916  -37.9523   11.8103 C   0  0  0  0  0  0
   45.0804  -38.6460   12.3937 C   0  0  0  0  0  0
   47.5369  -39.4246   12.3502 C   0  0  0  0  0  0
   48.5662  -39.3462   11.6485 O   0  0  0  0  0  0
   55.0653  -35.2473   21.2882 O   0  0  0  0  0  0
   54.2508  -34.8225   22.3319 C   0  0  0  0  0  0
   53.4312  -33.8133   21.7739 N   0  0  0  0  0  0
   53.7933  -33.6786   20.4507 C   0  0  0  0  0  0
   54.8537  -34.5867   20.0971 C   0  0  0  0  0  0
   55.5661  -34.7787   18.7522 C   0  0  0  0  0  0
   54.2241  -35.2679   23.6533 C   0  0  0  0  0  0
   55.3960  -35.2623   24.4963 C   0  0  0  0  0  0
   55.3134  -35.7315   25.8331 C   0  0  0  0  0  0
   54.0788  -36.2091   26.3450 C   0  0  0  0  0  0
   52.9160  -36.2195   25.5275 C   0  0  0  0  0  0
   52.9859  -35.7546   24.1905 C   0  0  0  0  0  0
   51.6328  -33.0117   19.1745 C   0  0  0  0  0  0
   53.0855  -32.6335   19.5216 C   0  0  0  0  0  0
   44.8850  -38.1427   18.2996 O   0  0  0  0  0  0
   43.9895  -37.9965   16.2644 O   0  0  0  0  0  0
   44.9838  -37.9690   17.0605 C   0  0  0  0  0  0
   46.2034  -38.2087   14.4423 H   0  0  0  0  0  0
   43.2224  -37.4932   16.4551 H   0  0  0  0  0  0
  1  2  1  0  0  0
  1 11  1  0  0  0
  1 42  1  0  0  0
  2  3  1  0  0  0
  2 41  1  0  0  0
  3  4  1  0  0  0
  4  5  2  0  0  0
  4  6  1  0  0  0
  5  7  1  0  0  0
  6  8  2  0  0  0
  7  9  2  0  0  0
  8  9  1  0  0  0
  9 10  1  0  0  0
 10 37  1  0  0  0
 11 12  2  0  0  0
 11 16  1  0  0  0
 12 13  1  0  0  0
 12 23  1  0  0  0
 13 14  2  0  0  0
 14 15  1  0  0  0
 15 16  2  0  0  0
 17 18  2  0  0  0
 17 22  1  0  0  0
 17 23  1  0  0  0
 18 19  1  0  0  0
 19 20  2  0  0  0
 20 21  1  0  0  0
 21 22  2  0  0  0
 23 24  2  0  0  0
 25 26  1  0  0  0
 25 29  1  0  0  0
 26 27  2  0  0  0
 26 31  1  0  0  0
 27 28  1  0  0  0
 28 29  2  0  0  0
 28 38  1  0  0  0
 29 30  1  0  0  0
 31 32  2  0  0  0
 31 36  1  0  0  0
 32 33  1  0  0  0
 33 34  2  0  0  0
 34 35  1  0  0  0
 35 36  2  0  0  0
 37 38  1  0  0  0
 39 41  2  0  0  0
 40 41  1  0  0  0
 40 43  1  0  0  0
M  END
>  <CHROM.0>
175.63379953,-174.03224945,-59.73647821,-56.23152635

>  <CHROM.1>
135.99207334,-159.32109452,-104.64463811,134.64566737,-120.04603460,-32.15605190
-165.54680471,-50.88839601,-176.36992031,55.70772773,-70.75241757,-48.05828142
-134.10754241,49.53212720,-36.92194546,17.47447736,2.66023866,-0.81892875
-1.01304955

>  <FORMUL>
      570    C34 H30 N2 O5

>  <HET>
 570  D 200      41

>  <HETNAM>
     570 2-(2-BENZOYL-PHENYLAMINO)-3-{4-[2-(5-METHYL-2-PHENYL-OX
   2 570 AZOL-4-YL)-ETHOXY]-PHENYL}-PROPIONIC ACID

>  <HETSYN>
     570 GI262570

>  <Name>
570.pdb

>  <RI>
4.19364e+07

>  <Rbt.Current_Directory>
/home/malgorzata/Desktop/rDOCK_IFD/Wyniki/14_ppar-gamma

>  <Rbt.Executable>
rbdock ($Id: //depot/dev/client3/rdock/2013.1/src/exe/rbdock.cxx#4 $)

>  <Rbt.Library>
libRbt.so (2013.1, Build901 2013/11/27)

>  <Rbt.Parameter_File>
/home/malgorzata/Desktop/rDock_2013.1_src/data/scripts/soft_docking.prm

>  <Rbt.Receptor>
cavity.prm

>  <SCORE>
-18.5764

>  <SCORE.INTER>
-28.5294

>  <SCORE.INTER.CONST>
1

>  <SCORE.INTER.POLAR>
-0.0608425

>  <SCORE.INTER.REPUL>
0.50916

>  <SCORE.INTER.ROT>
12

>  <SCORE.INTER.VDW>
-48.2683

>  <SCORE.INTER.norm>
-0.695839

>  <SCORE.INTRA>
7.61035

>  <SCORE.INTRA.DIHEDRAL>
29.3143

>  <SCORE.INTRA.DIHEDRAL.0>
12.9748

>  <SCORE.INTRA.POLAR>
0.058673

>  <SCORE.INTRA.POLAR.0>
-0.058673

>  <SCORE.INTRA.REPUL>
0

>  <SCORE.INTRA.REPUL.0>
0

>  <SCORE.INTRA.VDW>
1.548

>  <SCORE.INTRA.VDW.0>
-4.98062

>  <SCORE.INTRA.norm>
0.185618

>  <SCORE.RESTR>
1.65869

>  <SCORE.RESTR.CAVITY>
1.65869

>  <SCORE.RESTR.norm>
0.0404559

>  <SCORE.SYSTEM>
0.683957

>  <SCORE.SYSTEM.CONST>
0

>  <SCORE.SYSTEM.DIHEDRAL>
7.17376

>  <SCORE.SYSTEM.POLAR>
-0.332626

>  <SCORE.SYSTEM.REPUL>
0.0467333

>  <SCORE.SYSTEM.VDW>
-2.00566

>  <SCORE.SYSTEM.norm>
0.0166819

>  <SCORE.heavy>
41

>  <SCORE.norm>
-0.453083

$$$$
570.pdb
  rDOCK(R)          3D
libRbt.so/2013.1/901 2013/11/27
 43 47  0  0  0  0  0  0  0  0999 V2000
   47.1068  -36.9109   16.4384 N   0  0  0  0  0  0
   46.9580  -35.5310   15.8429 C   0  0  0  0  0  0
   48.2884  -34.7149   15.8492 C   0  0  0  0  0  0
   49.0695  -34.7875   17.1661 C   0  0  0  0  0  0
   50.4211  -34.3103   17.1859 C   0  0  0  0  0  0
   48.4779  -35.3186   18.3595 C   0  0  0  0  0  0
   51.1772  -34.3566   18.3726 C   0  0  0  0  0  0
   49.2283  -35.3698   19.5561 C   0  0  0  0  0  0
   50.6123  -34.8810   19.5785 C   0  0  0  0  0  0
   51.4839  -34.8689   20.7093 O   0  0  0  0  0  0
   46.1639  -37.8434   17.0507 C   0  0  0  0  0  0
   45.7603  -39.0737   16.3605 C   0  0  0  0  0  0
   44.8252  -39.9356   17.0445 C   0  0  0  0  0  0
   44.3154  -39.6106   18.3235 C   0  0  0  0  0  0
   44.7128  -38.4259   18.9696 C   0  0  0  0  0  0
   45.6167  -37.5581   18.3532 C   0  0  0  0  0  0
   46.7381  -40.9244   14.4687 C   0  0  0  0  0  0
   47.8445  -41.0162   13.5422 C   0  0  0  0  0  0
   48.3143  -42.2860   13.0984 C   0  0  0  0  0  0
   47.6873  -43.4756   13.5729 C   0  0  0  0  0  0
   46.5962  -43.3946   14.4847 C   0  0  0  0  0  0
   46.1270  -42.1334   14.9276 C   0  0  0  0  0  0
   46.2537  -39.5592   14.9325 C   0  0  0  0  0  0
   46.3202  -38.6932   14.0360 O   0  0  0  0  0  0
   55.2315  -36.4387   22.3955 O   0  0  0  0  0  0
   55.2076  -35.3507   21.5302 C   0  0  0  0  0  0
   53.9332  -34.7633   21.7102 N   0  0  0  0  0  0
   53.2647  -35.5184   22.6499 C   0  0  0  0  0  0
   54.0699  -36.6179   23.1155 C   0  0  0  0  0  0
   53.7347  -37.7063   24.1432 C   0  0  0  0  0  0
   56.2021  -34.9091   20.6578 C   0  0  0  0  0  0
   57.4465  -34.3450   21.1238 C   0  0  0  0  0  0
   58.4226  -33.9068   20.1915 C   0  0  0  0  0  0
   58.1780  -34.0204   18.7981 C   0  0  0  0  0  0
   56.9580  -34.5751   18.3240 C   0  0  0  0  0  0
   55.9748  -35.0152   19.2450 C   0  0  0  0  0  0
   51.0043  -34.4190   21.9995 C   0  0  0  0  0  0
   51.8062  -35.1525   23.0917 C   0  0  0  0  0  0
   47.1886  -35.6837   13.5026 O   0  0  0  0  0  0
   45.1193  -35.4763   14.3031 O   0  0  0  0  0  0
   46.3789  -35.5903   14.4570 C   0  0  0  0  0  0
   48.0297  -37.2523   16.4075 H   0  0  0  0  0  0
   44.7683  -35.2513   13.4639 H   0  0  0  0  0  0
  1  2  1  0  0  0
  1 11  1  0  0  0
  1 42  1  0  0  0
  2  3  1  0  0  0
  2 41  1  0  0  0
  3  4  1  0  0  0
  4  5  2  0  0  0
  4  6  1  0  0  0
  5  7  1  0  0  0
  6  8  2  0  0  0
  7  9  2  0  0  0
  8  9  1  0  0  0
  9 10  1  0  0  0
 10 37  1  0  0  0
 11 12  2  0  0  0
 11 16  1  0  0  0
 12 13  1  0  0  0
 12 23  1  0  0  0
 13 14  2  0  0  0
 14 15  1  0  0  0
 15 16  2  0  0  0
 17 18  2  0  0  0
 17 22  1  0  0  0
 17 23  1  0  0  0
 18 19  1  0  0  0
 19 20  2  0  0  0
 20 21  1  0  0  0
 21 22  2  0  0  0
 23 24  2  0  0  0
 25 26  1  0  0  0
 25 29  1  0  0  0
 26 27  2  0  0  0
 26 31  1  0  0  0
 27 28  1  0  0  0
 28 29  2  0  0  0
 28 38  1  0  0  0
 29 30  1  0  0  0
 31 32  2  0  0  0
 31 36  1  0  0  0
 32 33  1  0  0  0
 33 34  2  0  0  0
 34 35  1  0  0  0
 35 36  2  0  0  0
 37 38  1  0  0  0
 39 41  2  0  0  0
 40 41  1  0  0  0
 40 43  1  0  0  0
M  END
>  <CHROM.0>
55.17664477,164.53540886,166.42409589,135.24635489

>  <CHROM.1>
156.31333555,108.71863073,-44.81754399,-90.12379445,167.27095259,135.08496297
151.09992391,133.71936446,-140.79249251,-68.15151629,27.87033939,30.10311557
161.42000115,49.98475709,-36.90560660,18.02797331,2.48955088,0.26356742,-2.53194022

>  <FORMUL>
      570    C34 H30 N2 O5

>  <HET>
 570  D 200      41

>  <HETNAM>
     570 2-(2-BENZOYL-PHENYLAMINO)-3-{4-[2-(5-METHYL-2-PHENYL-OX
   2 570 AZOL-4-YL)-ETHOXY]-PHENYL}-PROPIONIC ACID

>  <HETSYN>
     570 GI262570

>  <Name>
570.pdb

>  <RI>
4.19364e+07

>  <Rbt.Current_Directory>
/home/malgorzata/Desktop/rDOCK_IFD/Wyniki/14_ppar-gamma

>  <Rbt.Executable>
rbdock ($Id: //depot/dev/client3/rdock/2013.1/src/exe/rbdock.cxx#4 $)

>  <Rbt.Library>
libRbt.so (2013.1, Build901 2013/11/27)

>  <Rbt.Parameter_File>
/home/malgorzata/Desktop/rDock_2013.1_src/data/scripts/soft_docking.prm

>  <Rbt.Receptor>
cavity.prm

>  <SCORE>
-19.4456

>  <SCORE.INTER>
-28.1

>  <SCORE.INTER.CONST>
1

>  <SCORE.INTER.POLAR>
-1.05311

>  <SCORE.INTER.REPUL>
0

>  <SCORE.INTER.ROT>
12

>  <SCORE.INTER.VDW>
-41.9194

>  <SCORE.INTER.norm>
-0.685365

>  <SCORE.INTRA>
9.66946

>  <SCORE.INTRA.DIHEDRAL>
38.403

>  <SCORE.INTRA.DIHEDRAL.0>
12.9748

>  <SCORE.INTRA.POLAR>
0.058673

>  <SCORE.INTRA.POLAR.0>
-0.058673

>  <SCORE.INTRA.REPUL>
0.167019

>  <SCORE.INTRA.REPUL.0>
0

>  <SCORE.INTRA.VDW>
0.95427

>  <SCORE.INTRA.VDW.0>
-4.98062

>  <SCORE.INTRA.norm>
0.235841

>  <SCORE.RESTR>
1.18908

>  <SCORE.RESTR.CAVITY>
1.18908

>  <SCORE.RESTR.norm>
0.0290018

>  <SCORE.SYSTEM>
-2.20421

>  <SCORE.SYSTEM.CONST>
0

>  <SCORE.SYSTEM.DIHEDRAL>
3.86723

>  <SCORE.SYSTEM.POLAR>
-0.534148

>  <SCORE.SYSTEM.REPUL>
0.0467333

>  <SCORE.SYSTEM.VDW>
-2.55538

>  <SCORE.SYSTEM.norm>
-0.0537611

>  <SCORE.heavy>
41

>  <SCORE.norm>
-0.474284

$$$$
