570.pdb
  rDOCK(R)          3D
libRbt.so/2013.1/901 2013/11/27
 43 47  0  0  0  0  0  0  0  0999 V2000
   49.8289  -33.9747   20.4941 N   0  0  0  0  0  0
   49.7002  -33.3575   19.1218 C   0  0  0  0  0  0
   48.7977  -34.1901   18.1583 C   0  0  0  0  0  0
   47.7229  -35.0262   18.8620 C   0  0  0  0  0  0
   48.1406  -36.1247   19.6830 C   0  0  0  0  0  0
   46.3275  -34.7314   18.7126 C   0  0  0  0  0  0
   47.1891  -36.9203   20.3491 C   0  0  0  0  0  0
   45.3641  -35.5240   19.3768 C   0  0  0  0  0  0
   45.7899  -36.6488   20.2185 C   0  0  0  0  0  0
   44.9330  -37.5287   20.9466 O   0  0  0  0  0  0
   50.8253  -34.8481   21.1089 C   0  0  0  0  0  0
   52.0314  -35.2523   20.3776 C   0  0  0  0  0  0
   52.9607  -36.1160   21.0673 C   0  0  0  0  0  0
   52.7216  -36.5578   22.3898 C   0  0  0  0  0  0
   51.5590  -36.1610   23.0750 C   0  0  0  0  0  0
   50.6284  -35.3246   22.4549 C   0  0  0  0  0  0
   51.8041  -35.2208   17.5657 C   0  0  0  0  0  0
   51.4083  -36.5920   17.3326 C   0  0  0  0  0  0
   50.8239  -36.9763   16.0912 C   0  0  0  0  0  0
   50.6280  -35.9993   15.0711 C   0  0  0  0  0  0
   51.0158  -34.6468   15.2915 C   0  0  0  0  0  0
   51.5971  -34.2619   16.5248 C   0  0  0  0  0  0
   52.4235  -34.8306   18.8989 C   0  0  0  0  0  0
   53.4322  -34.1070   18.7691 O   0  0  0  0  0  0
   47.7196  -40.9063   17.5230 O   0  0  0  0  0  0
   47.2437  -41.9373   18.3252 C   0  0  0  0  0  0
   46.1319  -41.3908   19.0085 N   0  0  0  0  0  0
   46.0033  -40.0815   18.5972 C   0  0  0  0  0  0
   47.0171  -39.7260   17.6381 C   0  0  0  0  0  0
   47.2595  -38.3900   16.9243 C   0  0  0  0  0  0
   47.7337  -43.2365   18.4566 C   0  0  0  0  0  0
   47.3691  -44.2972   17.5478 C   0  0  0  0  0  0
   47.8939  -45.6030   17.7309 C   0  0  0  0  0  0
   48.7776  -45.8706   18.8087 C   0  0  0  0  0  0
   49.1469  -44.8361   19.7110 C   0  0  0  0  0  0
   48.6287  -43.5282   19.5394 C   0  0  0  0  0  0
   44.9543  -38.9532   20.6872 C   0  0  0  0  0  0
   44.8653  -39.1647   19.1636 C   0  0  0  0  0  0
   49.7270  -31.1146   18.3993 O   0  0  0  0  0  0
   48.3846  -31.6104   20.1074 O   0  0  0  0  0  0
   49.2198  -31.9355   19.2018 C   0  0  0  0  0  0
   49.0886  -33.7399   21.0991 H   0  0  0  0  0  0
   47.9274  -30.7944   20.0520 H   0  0  0  0  0  0
  1  2  1  0  0  0
  1 11  1  0  0  0
  1 42  1  0  0  0
  2  3  1  0  0  0
  2 41  1  0  0  0
  3  4  1  0  0  0
  4  5  2  0  0  0
  4  6  1  0  0  0
  5  7  1  0  0  0
  6  8  2  0  0  0
  7  9  2  0  0  0
  8  9  1  0  0  0
  9 10  1  0  0  0
 10 37  1  0  0  0
 11 12  2  0  0  0
 11 16  1  0  0  0
 12 13  1  0  0  0
 12 23  1  0  0  0
 13 14  2  0  0  0
 14 15  1  0  0  0
 15 16  2  0  0  0
 17 18  2  0  0  0
 17 22  1  0  0  0
 17 23  1  0  0  0
 18 19  1  0  0  0
 19 20  2  0  0  0
 20 21  1  0  0  0
 21 22  2  0  0  0
 23 24  2  0  0  0
 25 26  1  0  0  0
 25 29  1  0  0  0
 26 27  2  0  0  0
 26 31  1  0  0  0
 27 28  1  0  0  0
 28 29  2  0  0  0
 28 38  1  0  0  0
 29 30  1  0  0  0
 31 32  2  0  0  0
 31 36  1  0  0  0
 32 33  1  0  0  0
 33 34  2  0  0  0
 34 35  1  0  0  0
 35 36  2  0  0  0
 37 38  1  0  0  0
 39 41  2  0  0  0
 40 41  1  0  0  0
 40 43  1  0  0  0
M  END
>  <CHROM.0>
21.94989909,-118.03784906,76.31759359,-147.90140586

>  <CHROM.1>
95.70453076,2.83057540,27.61078605,141.37640028,-67.21485199,-59.31459978
-48.55440236,-69.72053547,-42.08321345,-84.14853945,61.62007165,127.20058193
-165.75619189,48.89253012,-37.32930669,19.01374739,1.24158076,0.13200514
0.10772103

>  <FORMUL>
      570    C34 H30 N2 O5

>  <HET>
 570  D 200      41

>  <HETNAM>
     570 2-(2-BENZOYL-PHENYLAMINO)-3-{4-[2-(5-METHYL-2-PHENYL-OX
   2 570 AZOL-4-YL)-ETHOXY]-PHENYL}-PROPIONIC ACID

>  <HETSYN>
     570 GI262570

>  <Name>
570.pdb

>  <RI>
0

>  <Rbt.Current_Directory>
/home/malgorzata/Desktop/rDOCK_IFD/Wyniki/14_ppar-gamma

>  <Rbt.Executable>
rbdock ($Id: //depot/dev/client3/rdock/2013.1/src/exe/rbdock.cxx#4 $)

>  <Rbt.Library>
libRbt.so (2013.1, Build901 2013/11/27)

>  <Rbt.Parameter_File>
/home/malgorzata/Desktop/rDock_2013.1_src/data/scripts/soft_docking.prm

>  <Rbt.Receptor>
cavity.prm

>  <SCORE>
-11.1235

>  <SCORE.INTER>
-23.7757

>  <SCORE.INTER.CONST>
1

>  <SCORE.INTER.POLAR>
0

>  <SCORE.INTER.REPUL>
0.0288226

>  <SCORE.INTER.ROT>
12

>  <SCORE.INTER.VDW>
-41.3199

>  <SCORE.INTER.norm>
-0.579896

>  <SCORE.INTRA>
4.68942

>  <SCORE.INTRA.DIHEDRAL>
35.7504

>  <SCORE.INTRA.DIHEDRAL.0>
12.9748

>  <SCORE.INTRA.POLAR>
0.0585479

>  <SCORE.INTRA.POLAR.0>
-0.058673

>  <SCORE.INTRA.REPUL>
0

>  <SCORE.INTRA.REPUL.0>
0

>  <SCORE.INTRA.VDW>
-2.65974

>  <SCORE.INTRA.VDW.0>
-4.98062

>  <SCORE.INTRA.norm>
0.114376

>  <SCORE.RESTR>
1.40466

>  <SCORE.RESTR.CAVITY>
0.280931

>  <SCORE.RESTR.norm>
0.0342599

>  <SCORE.SYSTEM>
6.55818

>  <SCORE.SYSTEM.CONST>
0

>  <SCORE.SYSTEM.DIHEDRAL>
18.1461

>  <SCORE.SYSTEM.POLAR>
-0.111776

>  <SCORE.SYSTEM.REPUL>
0.0467333

>  <SCORE.SYSTEM.VDW>
-2.3685

>  <SCORE.SYSTEM.norm>
0.159956

>  <SCORE.heavy>
41

>  <SCORE.norm>
-0.271305

$$$$
570.pdb
  rDOCK(R)          3D
libRbt.so/2013.1/901 2013/11/27
 43 47  0  0  0  0  0  0  0  0999 V2000
   52.5757  -35.8073   24.5510 N   0  0  0  0  0  0
   51.7195  -35.5662   25.7715 C   0  0  0  0  0  0
   50.6725  -34.4265   25.5693 C   0  0  0  0  0  0
   50.3607  -34.1060   24.1032 C   0  0  0  0  0  0
   49.0860  -34.4951   23.5750 C   0  0  0  0  0  0
   51.3107  -33.4344   23.2649 C   0  0  0  0  0  0
   48.7553  -34.2212   22.2342 C   0  0  0  0  0  0
   50.9887  -33.1549   21.9174 C   0  0  0  0  0  0
   49.6838  -33.5519   21.3748 C   0  0  0  0  0  0
   49.2237  -33.3340   20.0409 O   0  0  0  0  0  0
   52.5801  -36.8425   23.5205 C   0  0  0  0  0  0
   53.7390  -37.0287   22.6401 C   0  0  0  0  0  0
   53.6532  -38.0786   21.6523 C   0  0  0  0  0  0
   52.5027  -38.8931   21.5333 C   0  0  0  0  0  0
   51.4004  -38.6991   22.3855 C   0  0  0  0  0  0
   51.4322  -37.6991   23.3596 C   0  0  0  0  0  0
   56.3307  -36.3532   23.5272 C   0  0  0  0  0  0
   56.5980  -37.6201   24.1711 C   0  0  0  0  0  0
   57.7589  -37.7912   24.9794 C   0  0  0  0  0  0
   58.6640  -36.7031   25.1537 C   0  0  0  0  0  0
   58.4081  -35.4515   24.5242 C   0  0  0  0  0  0
   57.2546  -35.2785   23.7201 C   0  0  0  0  0  0
   55.0873  -36.1921   22.6661 C   0  0  0  0  0  0
   55.1491  -35.2012   21.9096 O   0  0  0  0  0  0
   49.4234  -37.0630   15.7627 O   0  0  0  0  0  0
   48.2264  -36.3800   15.9469 C   0  0  0  0  0  0
   48.4108  -35.6233   17.1280 N   0  0  0  0  0  0
   49.6815  -35.8911   17.5903 C   0  0  0  0  0  0
   50.3695  -36.8246   16.7363 C   0  0  0  0  0  0
   51.7834  -37.4056   16.8650 C   0  0  0  0  0  0
   47.0741  -36.4139   15.1621 C   0  0  0  0  0  0
   47.0843  -36.8627   13.7900 C   0  0  0  0  0  0
   45.8826  -36.8721   13.0353 C   0  0  0  0  0  0
   44.6671  -36.4391   13.6264 C   0  0  0  0  0  0
   44.6408  -35.9959   14.9768 C   0  0  0  0  0  0
   45.8346  -35.9806   15.7406 C   0  0  0  0  0  0
   50.0577  -33.6877   18.9112 C   0  0  0  0  0  0
   50.2237  -35.2194   18.8984 C   0  0  0  0  0  0
   51.5657  -37.4368   27.1965 O   0  0  0  0  0  0
   50.0353  -37.2643   25.5860 O   0  0  0  0  0  0
   51.0461  -36.8299   26.2285 C   0  0  0  0  0  0
   53.2751  -35.1262   24.4236 H   0  0  0  0  0  0
   49.6563  -38.0909   25.8120 H   0  0  0  0  0  0
  1  2  1  0  0  0
  1 11  1  0  0  0
  1 42  1  0  0  0
  2  3  1  0  0  0
  2 41  1  0  0  0
  3  4  1  0  0  0
  4  5  2  0  0  0
  4  6  1  0  0  0
  5  7  1  0  0  0
  6  8  2  0  0  0
  7  9  2  0  0  0
  8  9  1  0  0  0
  9 10  1  0  0  0
 10 37  1  0  0  0
 11 12  2  0  0  0
 11 16  1  0  0  0
 12 13  1  0  0  0
 12 23  1  0  0  0
 13 14  2  0  0  0
 14 15  1  0  0  0
 15 16  2  0  0  0
 17 18  2  0  0  0
 17 22  1  0  0  0
 17 23  1  0  0  0
 18 19  1  0  0  0
 19 20  2  0  0  0
 20 21  1  0  0  0
 21 22  2  0  0  0
 23 24  2  0  0  0
 25 26  1  0  0  0
 25 29  1  0  0  0
 26 27  2  0  0  0
 26 31  1  0  0  0
 27 28  1  0  0  0
 28 29  2  0  0  0
 28 38  1  0  0  0
 29 30  1  0  0  0
 31 32  2  0  0  0
 31 36  1  0  0  0
 32 33  1  0  0  0
 33 34  2  0  0  0
 34 35  1  0  0  0
 35 36  2  0  0  0
 37 38  1  0  0  0
 39 41  2  0  0  0
 40 41  1  0  0  0
 40 43  1  0  0  0
M  END
>  <CHROM.0>
-0.04582248,34.48339045,-158.28453966,67.65874729

>  <CHROM.1>
-103.77054206,-163.90347464,20.18039777,100.07023026,108.13394698,-131.09328255
65.78139190,83.83824156,20.64835548,-19.77689375,-51.14311776,119.77748920
174.32876409,51.23208469,-36.04913719,21.04056132,0.85495905,-0.24556417
1.38668447

>  <FORMUL>
      570    C34 H30 N2 O5

>  <HET>
 570  D 200      41

>  <HETNAM>
     570 2-(2-BENZOYL-PHENYLAMINO)-3-{4-[2-(5-METHYL-2-PHENYL-OX
   2 570 AZOL-4-YL)-ETHOXY]-PHENYL}-PROPIONIC ACID

>  <HETSYN>
     570 GI262570

>  <Name>
570.pdb

>  <RI>
0

>  <Rbt.Current_Directory>
/home/malgorzata/Desktop/rDOCK_IFD/Wyniki/14_ppar-gamma

>  <Rbt.Executable>
rbdock ($Id: //depot/dev/client3/rdock/2013.1/src/exe/rbdock.cxx#4 $)

>  <Rbt.Library>
libRbt.so (2013.1, Build901 2013/11/27)

>  <Rbt.Parameter_File>
/home/malgorzata/Desktop/rDock_2013.1_src/data/scripts/soft_docking.prm

>  <Rbt.Receptor>
cavity.prm

>  <SCORE>
2.32149

>  <SCORE.INTER>
-16.176

>  <SCORE.INTER.CONST>
1

>  <SCORE.INTER.POLAR>
-0.668988

>  <SCORE.INTER.REPUL>
0

>  <SCORE.INTER.ROT>
12

>  <SCORE.INTER.VDW>
-31.3015

>  <SCORE.INTER.norm>
-0.394537

>  <SCORE.INTRA>
4.01545

>  <SCORE.INTRA.DIHEDRAL>
20.1166

>  <SCORE.INTRA.DIHEDRAL.0>
12.9748

>  <SCORE.INTRA.POLAR>
0.058673

>  <SCORE.INTRA.POLAR.0>
-0.058673

>  <SCORE.INTRA.REPUL>
0

>  <SCORE.INTRA.REPUL.0>
0

>  <SCORE.INTRA.VDW>
-0.207353

>  <SCORE.INTRA.VDW.0>
-4.98062

>  <SCORE.INTRA.norm>
0.0979378

>  <SCORE.RESTR>
9.96151

>  <SCORE.RESTR.CAVITY>
1.9923

>  <SCORE.RESTR.norm>
0.242964

>  <SCORE.SYSTEM>
4.52054

>  <SCORE.SYSTEM.CONST>
0

>  <SCORE.SYSTEM.DIHEDRAL>
14.7192

>  <SCORE.SYSTEM.POLAR>
-0.368378

>  <SCORE.SYSTEM.REPUL>
0.0467333

>  <SCORE.SYSTEM.VDW>
-1.82023

>  <SCORE.SYSTEM.norm>
0.110257

>  <SCORE.heavy>
41

>  <SCORE.norm>
0.0566216

$$$$
570.pdb
  rDOCK(R)          3D
libRbt.so/2013.1/901 2013/11/27
 43 47  0  0  0  0  0  0  0  0999 V2000
   46.6882  -42.6243   16.5055 N   0  0  0  0  0  0
   47.5281  -41.4179   16.8519 C   0  0  0  0  0  0
   47.0286  -40.1073   16.1673 C   0  0  0  0  0  0
   47.8225  -38.8523   16.5472 C   0  0  0  0  0  0
   47.3550  -38.0536   17.6421 C   0  0  0  0  0  0
   49.0065  -38.4705   15.8341 C   0  0  0  0  0  0
   48.0518  -36.8926   18.0273 C   0  0  0  0  0  0
   49.7134  -37.3066   16.2126 C   0  0  0  0  0  0
   49.2366  -36.4878   17.3338 C   0  0  0  0  0  0
   49.8469  -35.2945   17.8258 O   0  0  0  0  0  0
   46.7251  -43.5873   15.4078 C   0  0  0  0  0  0
   46.3445  -44.9887   15.6177 C   0  0  0  0  0  0
   46.4105  -45.8671   14.4735 C   0  0  0  0  0  0
   46.8260  -45.4017   13.2038 C   0  0  0  0  0  0
   47.1884  -44.0547   13.0216 C   0  0  0  0  0  0
   47.1405  -43.1625   14.0947 C   0  0  0  0  0  0
   46.5361  -45.6948   18.3425 C   0  0  0  0  0  0
   45.7756  -46.0948   19.5056 C   0  0  0  0  0  0
   46.3920  -46.1545   20.7888 C   0  0  0  0  0  0
   47.7707  -45.8170   20.9258 C   0  0  0  0  0  0
   48.5271  -45.4209   19.7860 C   0  0  0  0  0  0
   47.9168  -45.3606   18.5089 C   0  0  0  0  0  0
   45.8600  -45.6404   16.9812 C   0  0  0  0  0  0
   44.7797  -46.2650   16.9534 O   0  0  0  0  0  0
   52.1281  -33.6076   21.0965 O   0  0  0  0  0  0
   51.3817  -34.7758   21.2019 C   0  0  0  0  0  0
   50.3661  -34.6549   20.2244 N   0  0  0  0  0  0
   50.5441  -33.4396   19.5988 C   0  0  0  0  0  0
   51.6730  -32.7268   20.1389 C   0  0  0  0  0  0
   52.2323  -31.3507   19.7557 C   0  0  0  0  0  0
   51.5629  -35.8502   22.0725 C   0  0  0  0  0  0
   52.1920  -37.0827   21.6613 C   0  0  0  0  0  0
   52.3468  -38.1464   22.5878 C   0  0  0  0  0  0
   51.8824  -38.0025   23.9212 C   0  0  0  0  0  0
   51.2623  -36.7944   24.3414 C   0  0  0  0  0  0
   51.1008  -35.7252   23.4251 C   0  0  0  0  0  0
   49.4432  -34.0009   17.3154 C   0  0  0  0  0  0
   49.5820  -32.9716   18.4535 C   0  0  0  0  0  0
   46.6332  -40.7582   18.9297 O   0  0  0  0  0  0
   48.7376  -41.4909   18.9223 O   0  0  0  0  0  0
   47.6346  -41.2316   18.3396 C   0  0  0  0  0  0
   45.9671  -42.7974   17.1530 H   0  0  0  0  0  0
   49.5445  -41.4195   18.4512 H   0  0  0  0  0  0
  1  2  1  0  0  0
  1 11  1  0  0  0
  1 42  1  0  0  0
  2  3  1  0  0  0
  2 41  1  0  0  0
  3  4  1  0  0  0
  4  5  2  0  0  0
  4  6  1  0  0  0
  5  7  1  0  0  0
  6  8  2  0  0  0
  7  9  2  0  0  0
  8  9  1  0  0  0
  9 10  1  0  0  0
 10 37  1  0  0  0
 11 12  2  0  0  0
 11 16  1  0  0  0
 12 13  1  0  0  0
 12 23  1  0  0  0
 13 14  2  0  0  0
 14 15  1  0  0  0
 15 16  2  0  0  0
 17 18  2  0  0  0
 17 22  1  0  0  0
 17 23  1  0  0  0
 18 19  1  0  0  0
 19 20  2  0  0  0
 20 21  1  0  0  0
 21 22  2  0  0  0
 23 24  2  0  0  0
 25 26  1  0  0  0
 25 29  1  0  0  0
 26 27  2  0  0  0
 26 31  1  0  0  0
 27 28  1  0  0  0
 28 29  2  0  0  0
 28 38  1  0  0  0
 29 30  1  0  0  0
 31 32  2  0  0  0
 31 36  1  0  0  0
 32 33  1  0  0  0
 33 34  2  0  0  0
 34 35  1  0  0  0
 35 36  2  0  0  0
 37 38  1  0  0  0
 39 41  2  0  0  0
 40 41  1  0  0  0
 40 43  1  0  0  0
M  END
>  <CHROM.0>
57.00459166,-149.94665738,35.04904297,16.69047597

>  <CHROM.1>
86.87368175,146.60854090,177.43389585,-75.95433162,-92.88809123,-88.41526876
147.83037156,-56.48914996,166.75612121,-101.08270463,-53.38535024,20.29274574
27.28444076,48.71333056,-39.74603527,18.50629596,2.68152340,1.13608095,2.41310161

>  <FORMUL>
      570    C34 H30 N2 O5

>  <HET>
 570  D 200      41

>  <HETNAM>
     570 2-(2-BENZOYL-PHENYLAMINO)-3-{4-[2-(5-METHYL-2-PHENYL-OX
   2 570 AZOL-4-YL)-ETHOXY]-PHENYL}-PROPIONIC ACID

>  <HETSYN>
     570 GI262570

>  <Name>
570.pdb

>  <RI>
0

>  <Rbt.Current_Directory>
/home/malgorzata/Desktop/rDOCK_IFD/Wyniki/14_ppar-gamma

>  <Rbt.Executable>
rbdock ($Id: //depot/dev/client3/rdock/2013.1/src/exe/rbdock.cxx#4 $)

>  <Rbt.Library>
libRbt.so (2013.1, Build901 2013/11/27)

>  <Rbt.Parameter_File>
/home/malgorzata/Desktop/rDock_2013.1_src/data/scripts/soft_docking.prm

>  <Rbt.Receptor>
cavity.prm

>  <SCORE>
-11.5178

>  <SCORE.INTER>
-19.9348

>  <SCORE.INTER.CONST>
1

>  <SCORE.INTER.POLAR>
-0.346404

>  <SCORE.INTER.REPUL>
0

>  <SCORE.INTER.ROT>
12

>  <SCORE.INTER.VDW>
-36.1571

>  <SCORE.INTER.norm>
-0.486215

>  <SCORE.INTRA>
7.75759

>  <SCORE.INTRA.DIHEDRAL>
36.7461

>  <SCORE.INTRA.DIHEDRAL.0>
12.9748

>  <SCORE.INTRA.POLAR>
0.058673

>  <SCORE.INTRA.POLAR.0>
-0.058673

>  <SCORE.INTRA.REPUL>
0

>  <SCORE.INTRA.REPUL.0>
0

>  <SCORE.INTRA.VDW>
0.208872

>  <SCORE.INTRA.VDW.0>
-4.98062

>  <SCORE.INTRA.norm>
0.189209

>  <SCORE.RESTR>
0.381238

>  <SCORE.RESTR.CAVITY>
0.0762476

>  <SCORE.RESTR.norm>
0.00929849

>  <SCORE.SYSTEM>
0.27816

>  <SCORE.SYSTEM.CONST>
0

>  <SCORE.SYSTEM.DIHEDRAL>
5.61357

>  <SCORE.SYSTEM.POLAR>
-0.0508599

>  <SCORE.SYSTEM.REPUL>
0.0467333

>  <SCORE.SYSTEM.VDW>
-2.58937

>  <SCORE.SYSTEM.norm>
0.00678438

>  <SCORE.heavy>
41

>  <SCORE.norm>
-0.280923

$$$$
570.pdb
  rDOCK(R)          3D
libRbt.so/2013.1/901 2013/11/27
 43 47  0  0  0  0  0  0  0  0999 V2000
   50.5980  -35.8106   21.2682 N   0  0  0  0  0  0
   49.8227  -34.5148   21.2422 C   0  0  0  0  0  0
   49.0788  -34.2735   19.8915 C   0  0  0  0  0  0
   47.9704  -35.2882   19.5892 C   0  0  0  0  0  0
   47.0463  -35.6218   20.6331 C   0  0  0  0  0  0
   47.8468  -35.9001   18.2982 C   0  0  0  0  0  0
   46.0118  -36.5482   20.4016 C   0  0  0  0  0  0
   46.8119  -36.8315   18.0553 C   0  0  0  0  0  0
   45.8643  -37.1739   19.1228 C   0  0  0  0  0  0
   44.7747  -38.0909   19.0208 O   0  0  0  0  0  0
   51.6405  -36.3353   22.1465 C   0  0  0  0  0  0
   53.0167  -35.8319   22.0720 C   0  0  0  0  0  0
   53.9787  -36.4090   22.9812 C   0  0  0  0  0  0
   53.6152  -37.4181   23.9037 C   0  0  0  0  0  0
   52.2910  -37.8894   23.9599 C   0  0  0  0  0  0
   51.3207  -37.3637   23.1043 C   0  0  0  0  0  0
   53.0959  -34.3088   19.6985 C   0  0  0  0  0  0
   52.7233  -35.3314   18.7463 C   0  0  0  0  0  0
   52.2855  -34.9776   17.4374 C   0  0  0  0  0  0
   52.2143  -33.6030   17.0646 C   0  0  0  0  0  0
   52.5803  -32.5893   17.9955 C   0  0  0  0  0  0
   53.0160  -32.9381   19.2976 C   0  0  0  0  0  0
   53.5579  -34.7074   21.0917 C   0  0  0  0  0  0
   54.5585  -34.0648   21.4707 O   0  0  0  0  0  0
   47.4218  -43.2968   18.5786 O   0  0  0  0  0  0
   46.2311  -43.8547   19.0306 C   0  0  0  0  0  0
   45.4662  -42.7617   19.5014 N   0  0  0  0  0  0
   46.2242  -41.6247   19.3206 C   0  0  0  0  0  0
   47.5019  -41.9290   18.7299 C   0  0  0  0  0  0
   48.6550  -40.9874   18.3597 C   0  0  0  0  0  0
   45.8442  -45.1946   19.0381 C   0  0  0  0  0  0
   46.2755  -46.1309   18.0276 C   0  0  0  0  0  0
   45.8475  -47.4829   18.0810 C   0  0  0  0  0  0
   44.9931  -47.9186   19.1272 C   0  0  0  0  0  0
   44.5612  -47.0086   20.1303 C   0  0  0  0  0  0
   44.9808  -45.6555   20.0873 C   0  0  0  0  0  0
   45.0022  -39.4541   18.5885 C   0  0  0  0  0  0
   45.6817  -40.2162   19.7424 C   0  0  0  0  0  0
   48.3149  -35.4882   22.7694 O   0  0  0  0  0  0
   48.6044  -33.2827   22.9012 O   0  0  0  0  0  0
   48.8661  -34.4236   22.3980 C   0  0  0  0  0  0
   50.3494  -36.4292   20.5438 H   0  0  0  0  0  0
   48.5435  -32.5292   22.3475 H   0  0  0  0  0  0
  1  2  1  0  0  0
  1 11  1  0  0  0
  1 42  1  0  0  0
  2  3  1  0  0  0
  2 41  1  0  0  0
  3  4  1  0  0  0
  4  5  2  0  0  0
  4  6  1  0  0  0
  5  7  1  0  0  0
  6  8  2  0  0  0
  7  9  2  0  0  0
  8  9  1  0  0  0
  9 10  1  0  0  0
 10 37  1  0  0  0
 11 12  2  0  0  0
 11 16  1  0  0  0
 12 13  1  0  0  0
 12 23  1  0  0  0
 13 14  2  0  0  0
 14 15  1  0  0  0
 15 16  2  0  0  0
 17 18  2  0  0  0
 17 22  1  0  0  0
 17 23  1  0  0  0
 18 19  1  0  0  0
 19 20  2  0  0  0
 20 21  1  0  0  0
 21 22  2  0  0  0
 23 24  2  0  0  0
 25 26  1  0  0  0
 25 29  1  0  0  0
 26 27  2  0  0  0
 26 31  1  0  0  0
 27 28  1  0  0  0
 28 29  2  0  0  0
 28 38  1  0  0  0
 29 30  1  0  0  0
 31 32  2  0  0  0
 31 36  1  0  0  0
 32 33  1  0  0  0
 33 34  2  0  0  0
 34 35  1  0  0  0
 35 36  2  0  0  0
 37 38  1  0  0  0
 39 41  2  0  0  0
 40 41  1  0  0  0
 40 43  1  0  0  0
M  END
>  <CHROM.0>
-48.34105381,-163.26170705,-16.22859976,-122.10314858

>  <CHROM.1>
165.02117405,-74.48162198,64.90101780,-35.57008664,46.03979611,-124.97417145
73.70509108,-29.41259207,-40.40209569,-32.07197969,-94.34678606,-169.30680190
36.33295975,48.90791391,-38.26461182,20.08829846,-0.97658857,0.38439459,3.06455112

>  <FORMUL>
      570    C34 H30 N2 O5

>  <HET>
 570  D 200      41

>  <HETNAM>
     570 2-(2-BENZOYL-PHENYLAMINO)-3-{4-[2-(5-METHYL-2-PHENYL-OX
   2 570 AZOL-4-YL)-ETHOXY]-PHENYL}-PROPIONIC ACID

>  <HETSYN>
     570 GI262570

>  <Name>
570.pdb

>  <RI>
0

>  <Rbt.Current_Directory>
/home/malgorzata/Desktop/rDOCK_IFD/Wyniki/14_ppar-gamma

>  <Rbt.Executable>
rbdock ($Id: //depot/dev/client3/rdock/2013.1/src/exe/rbdock.cxx#4 $)

>  <Rbt.Library>
libRbt.so (2013.1, Build901 2013/11/27)

>  <Rbt.Parameter_File>
/home/malgorzata/Desktop/rDock_2013.1_src/data/scripts/soft_docking.prm

>  <Rbt.Receptor>
cavity.prm

>  <SCORE>
-15.7014

>  <SCORE.INTER>
-26.676

>  <SCORE.INTER.CONST>
1

>  <SCORE.INTER.POLAR>
-0.434231

>  <SCORE.INTER.REPUL>
0.137698

>  <SCORE.INTER.ROT>
12

>  <SCORE.INTER.VDW>
-43.2881

>  <SCORE.INTER.norm>
-0.650634

>  <SCORE.INTRA>
7.76021

>  <SCORE.INTRA.DIHEDRAL>
30.8459

>  <SCORE.INTRA.DIHEDRAL.0>
12.9748

>  <SCORE.INTRA.POLAR>
0.058673

>  <SCORE.INTRA.POLAR.0>
-0.058673

>  <SCORE.INTRA.REPUL>
0

>  <SCORE.INTRA.REPUL.0>
0

>  <SCORE.INTRA.VDW>
1.39154

>  <SCORE.INTRA.VDW.0>
-4.98062

>  <SCORE.INTRA.norm>
0.189273

>  <SCORE.RESTR>
3.30527

>  <SCORE.RESTR.CAVITY>
0.661055

>  <SCORE.RESTR.norm>
0.0806165

>  <SCORE.SYSTEM>
-0.0909297

>  <SCORE.SYSTEM.CONST>
0

>  <SCORE.SYSTEM.DIHEDRAL>
5.80746

>  <SCORE.SYSTEM.POLAR>
-0.302288

>  <SCORE.SYSTEM.REPUL>
0.0467333

>  <SCORE.SYSTEM.VDW>
-2.20055

>  <SCORE.SYSTEM.norm>
-0.0022178

>  <SCORE.heavy>
41

>  <SCORE.norm>
-0.382962

$$$$
570.pdb
  rDOCK(R)          3D
libRbt.so/2013.1/901 2013/11/27
 43 47  0  0  0  0  0  0  0  0999 V2000
   47.6066  -34.5983   18.9837 N   0  0  0  0  0  0
   47.1145  -35.3369   17.7618 C   0  0  0  0  0  0
   48.1944  -36.2748   17.1373 C   0  0  0  0  0  0
   47.6844  -37.1494   15.9864 C   0  0  0  0  0  0
   48.1932  -36.9085   14.6680 C   0  0  0  0  0  0
   46.7199  -38.1878   16.2053 C   0  0  0  0  0  0
   47.7541  -37.6869   13.5802 C   0  0  0  0  0  0
   46.2724  -38.9748   15.1200 C   0  0  0  0  0  0
   46.7927  -38.7302   13.7694 C   0  0  0  0  0  0
   46.4347  -39.4440   12.5859 O   0  0  0  0  0  0
   48.5675  -33.5156   19.1789 C   0  0  0  0  0  0
   49.5507  -33.5637   20.2670 C   0  0  0  0  0  0
   50.4615  -32.4490   20.3807 C   0  0  0  0  0  0
   50.4102  -31.3546   19.4857 C   0  0  0  0  0  0
   49.4598  -31.3252   18.4490 C   0  0  0  0  0  0
   48.5568  -32.3788   18.2930 C   0  0  0  0  0  0
   50.9411  -35.1670   22.1260 C   0  0  0  0  0  0
   52.2618  -34.7817   21.6805 C   0  0  0  0  0  0
   53.4182  -35.1835   22.4096 C   0  0  0  0  0  0
   53.2704  -35.9721   23.5885 C   0  0  0  0  0  0
   51.9736  -36.3571   24.0340 C   0  0  0  0  0  0
   50.8221  -35.9590   23.3110 C   0  0  0  0  0  0
   49.7194  -34.7252   21.3351 C   0  0  0  0  0  0
   48.7229  -35.4477   21.5425 O   0  0  0  0  0  0
   49.6066  -42.5205   15.8041 O   0  0  0  0  0  0
   48.3591  -42.1083   16.2591 C   0  0  0  0  0  0
   47.7285  -41.5279   15.1335 N   0  0  0  0  0  0
   48.6148  -41.6108   14.0810 C   0  0  0  0  0  0
   49.8472  -42.2430   14.4755 C   0  0  0  0  0  0
   51.1025  -42.5375   13.6445 C   0  0  0  0  0  0
   47.8174  -42.2214   17.5392 C   0  0  0  0  0  0
   48.0416  -41.2312   18.5654 C   0  0  0  0  0  0
   47.4696  -41.3988   19.8533 C   0  0  0  0  0  0
   46.6766  -42.5410   20.1371 C   0  0  0  0  0  0
   46.4456  -43.5240   19.1365 C   0  0  0  0  0  0
   47.0123  -43.3686   17.8468 C   0  0  0  0  0  0
   46.7267  -40.8573   12.4660 C   0  0  0  0  0  0
   48.2420  -41.0525   12.6648 C   0  0  0  0  0  0
   44.7809  -35.6258   17.6052 O   0  0  0  0  0  0
   45.9102  -37.1419   18.7849 O   0  0  0  0  0  0
   45.8530  -36.1008   18.0526 C   0  0  0  0  0  0
   47.1947  -34.9109   19.8215 H   0  0  0  0  0  0
   45.7953  -37.9900   18.4034 H   0  0  0  0  0  0
  1  2  1  0  0  0
  1 11  1  0  0  0
  1 42  1  0  0  0
  2  3  1  0  0  0
  2 41  1  0  0  0
  3  4  1  0  0  0
  4  5  2  0  0  0
  4  6  1  0  0  0
  5  7  1  0  0  0
  6  8  2  0  0  0
  7  9  2  0  0  0
  8  9  1  0  0  0
  9 10  1  0  0  0
 10 37  1  0  0  0
 11 12  2  0  0  0
 11 16  1  0  0  0
 12 13  1  0  0  0
 12 23  1  0  0  0
 13 14  2  0  0  0
 14 15  1  0  0  0
 15 16  2  0  0  0
 17 18  2  0  0  0
 17 22  1  0  0  0
 17 23  1  0  0  0
 18 19  1  0  0  0
 19 20  2  0  0  0
 20 21  1  0  0  0
 21 22  2  0  0  0
 23 24  2  0  0  0
 25 26  1  0  0  0
 25 29  1  0  0  0
 26 27  2  0  0  0
 26 31  1  0  0  0
 27 28  1  0  0  0
 28 29  2  0  0  0
 28 38  1  0  0  0
 29 30  1  0  0  0
 31 32  2  0  0  0
 31 36  1  0  0  0
 32 33  1  0  0  0
 33 34  2  0  0  0
 34 35  1  0  0  0
 35 36  2  0  0  0
 37 38  1  0  0  0
 39 41  2  0  0  0
 40 41  1  0  0  0
 40 43  1  0  0  0
M  END
>  <CHROM.0>
44.68790030,157.70989115,31.15206608,136.38050208

>  <CHROM.1>
70.38352361,-136.01051858,173.87760821,105.04880744,113.22782529,116.67436706
-56.89037925,153.51539809,-18.63748976,86.64430068,-18.67841006,103.08742121
-108.50108999,48.51882954,-37.80916397,17.85507881,0.92978423,-1.11199678
0.11634550

>  <FORMUL>
      570    C34 H30 N2 O5

>  <HET>
 570  D 200      41

>  <HETNAM>
     570 2-(2-BENZOYL-PHENYLAMINO)-3-{4-[2-(5-METHYL-2-PHENYL-OX
   2 570 AZOL-4-YL)-ETHOXY]-PHENYL}-PROPIONIC ACID

>  <HETSYN>
     570 GI262570

>  <Name>
570.pdb

>  <RI>
0

>  <Rbt.Current_Directory>
/home/malgorzata/Desktop/rDOCK_IFD/Wyniki/14_ppar-gamma

>  <Rbt.Executable>
rbdock ($Id: //depot/dev/client3/rdock/2013.1/src/exe/rbdock.cxx#4 $)

>  <Rbt.Library>
libRbt.so (2013.1, Build901 2013/11/27)

>  <Rbt.Parameter_File>
/home/malgorzata/Desktop/rDock_2013.1_src/data/scripts/soft_docking.prm

>  <Rbt.Receptor>
cavity.prm

>  <SCORE>
-14.8187

>  <SCORE.INTER>
-24.9096

>  <SCORE.INTER.CONST>
1

>  <SCORE.INTER.POLAR>
-0.389757

>  <SCORE.INTER.REPUL>
0.0664184

>  <SCORE.INTER.ROT>
12

>  <SCORE.INTER.VDW>
-41.3166

>  <SCORE.INTER.norm>
-0.607552

>  <SCORE.INTRA>
9.57395

>  <SCORE.INTRA.DIHEDRAL>
45.6689

>  <SCORE.INTRA.DIHEDRAL.0>
12.9748

>  <SCORE.INTRA.POLAR>
0.054098

>  <SCORE.INTRA.POLAR.0>
-0.058673

>  <SCORE.INTRA.REPUL>
0

>  <SCORE.INTRA.REPUL.0>
0

>  <SCORE.INTRA.VDW>
0.256239

>  <SCORE.INTRA.VDW.0>
-4.98062

>  <SCORE.INTRA.norm>
0.233511

>  <SCORE.RESTR>
0.970152

>  <SCORE.RESTR.CAVITY>
0.19403

>  <SCORE.RESTR.norm>
0.0236622

>  <SCORE.SYSTEM>
-0.453133

>  <SCORE.SYSTEM.CONST>
0

>  <SCORE.SYSTEM.DIHEDRAL>
6.79516

>  <SCORE.SYSTEM.POLAR>
-0.527309

>  <SCORE.SYSTEM.REPUL>
0.0467333

>  <SCORE.SYSTEM.VDW>
-2.29153

>  <SCORE.SYSTEM.norm>
-0.011052

>  <SCORE.heavy>
41

>  <SCORE.norm>
-0.361431

$$$$
570.pdb
  rDOCK(R)          3D
libRbt.so/2013.1/901 2013/11/27
 43 47  0  0  0  0  0  0  0  0999 V2000
   46.0754  -43.0627   17.7468 N   0  0  0  0  0  0
   46.7391  -42.9405   16.3957 C   0  0  0  0  0  0
   45.8669  -42.1748   15.3522 C   0  0  0  0  0  0
   46.2628  -40.7078   15.1507 C   0  0  0  0  0  0
   45.4271  -39.6905   15.7180 C   0  0  0  0  0  0
   47.4376  -40.3435   14.4135 C   0  0  0  0  0  0
   45.7512  -38.3297   15.5591 C   0  0  0  0  0  0
   47.7719  -38.9803   14.2479 C   0  0  0  0  0  0
   46.9178  -37.9371   14.8286 C   0  0  0  0  0  0
   47.1320  -36.5281   14.7438 O   0  0  0  0  0  0
   46.3593  -42.4832   19.0571 C   0  0  0  0  0  0
   47.5273  -42.9095   19.8360 C   0  0  0  0  0  0
   47.7281  -42.2793   21.1197 C   0  0  0  0  0  0
   46.8384  -41.2949   21.6102 C   0  0  0  0  0  0
   45.7228  -40.8995   20.8499 C   0  0  0  0  0  0
   45.4834  -41.4758   19.6007 C   0  0  0  0  0  0
   48.5204  -45.5144   19.4023 C   0  0  0  0  0  0
   47.9987  -46.2014   18.2417 C   0  0  0  0  0  0
   47.9171  -47.6236   18.2176 C   0  0  0  0  0  0
   48.3543  -48.3748   19.3481 C   0  0  0  0  0  0
   48.8686  -47.7066   20.4959 C   0  0  0  0  0  0
   48.9507  -46.2925   20.5227 C   0  0  0  0  0  0
   48.6018  -43.9956   19.4068 C   0  0  0  0  0  0
   49.7249  -43.5714   19.0654 O   0  0  0  0  0  0
   51.5691  -34.8284   18.0406 O   0  0  0  0  0  0
   51.1835  -35.5310   19.1767 C   0  0  0  0  0  0
   49.9886  -36.1953   18.8125 N   0  0  0  0  0  0
   49.7165  -35.8582   17.5039 C   0  0  0  0  0  0
   50.7145  -34.9687   16.9682 C   0  0  0  0  0  0
   50.8124  -34.3390   15.5728 C   0  0  0  0  0  0
   51.8104  -35.5871   20.4212 C   0  0  0  0  0  0
   51.3865  -34.7780   21.5391 C   0  0  0  0  0  0
   52.0637  -34.8718   22.7827 C   0  0  0  0  0  0
   53.1606  -35.7601   22.9311 C   0  0  0  0  0  0
   53.5886  -36.5644   21.8399 C   0  0  0  0  0  0
   52.9212  -36.4790   20.5925 C   0  0  0  0  0  0
   48.3214  -35.9319   15.3155 C   0  0  0  0  0  0
   48.4488  -36.4181   16.7720 C   0  0  0  0  0  0
   49.0136  -42.8021   15.7949 O   0  0  0  0  0  0
   48.2918  -41.3830   17.3540 O   0  0  0  0  0  0
   48.1019  -42.3162   16.5076 C   0  0  0  0  0  0
   45.2892  -43.6553   17.7436 H   0  0  0  0  0  0
   49.1593  -41.0695   17.5191 H   0  0  0  0  0  0
  1  2  1  0  0  0
  1 11  1  0  0  0
  1 42  1  0  0  0
  2  3  1  0  0  0
  2 41  1  0  0  0
  3  4  1  0  0  0
  4  5  2  0  0  0
  4  6  1  0  0  0
  5  7  1  0  0  0
  6  8  2  0  0  0
  7  9  2  0  0  0
  8  9  1  0  0  0
  9 10  1  0  0  0
 10 37  1  0  0  0
 11 12  2  0  0  0
 11 16  1  0  0  0
 12 13  1  0  0  0
 12 23  1  0  0  0
 13 14  2  0  0  0
 14 15  1  0  0  0
 15 16  2  0  0  0
 17 18  2  0  0  0
 17 22  1  0  0  0
 17 23  1  0  0  0
 18 19  1  0  0  0
 19 20  2  0  0  0
 20 21  1  0  0  0
 21 22  2  0  0  0
 23 24  2  0  0  0
 25 26  1  0  0  0
 25 29  1  0  0  0
 26 27  2  0  0  0
 26 31  1  0  0  0
 27 28  1  0  0  0
 28 29  2  0  0  0
 28 38  1  0  0  0
 29 30  1  0  0  0
 31 32  2  0  0  0
 31 36  1  0  0  0
 32 33  1  0  0  0
 33 34  2  0  0  0
 34 35  1  0  0  0
 35 36  2  0  0  0
 37 38  1  0  0  0
 39 41  2  0  0  0
 40 41  1  0  0  0
 40 43  1  0  0  0
M  END
>  <CHROM.0>
177.40762569,-102.70463235,46.90212882,-6.44740788

>  <CHROM.1>
-111.45080096,-70.86167480,100.08098605,139.42810080,-105.38967036,117.98312690
-51.28189955,-76.87634105,87.96035444,98.35585565,-179.78219780,179.15308636
171.38128476,48.66688602,-40.11682726,18.20940495,2.14488270,0.93632373,2.68257437

>  <FORMUL>
      570    C34 H30 N2 O5

>  <HET>
 570  D 200      41

>  <HETNAM>
     570 2-(2-BENZOYL-PHENYLAMINO)-3-{4-[2-(5-METHYL-2-PHENYL-OX
   2 570 AZOL-4-YL)-ETHOXY]-PHENYL}-PROPIONIC ACID

>  <HETSYN>
     570 GI262570

>  <Name>
570.pdb

>  <RI>
0

>  <Rbt.Current_Directory>
/home/malgorzata/Desktop/rDOCK_IFD/Wyniki/14_ppar-gamma

>  <Rbt.Executable>
rbdock ($Id: //depot/dev/client3/rdock/2013.1/src/exe/rbdock.cxx#4 $)

>  <Rbt.Library>
libRbt.so (2013.1, Build901 2013/11/27)

>  <Rbt.Parameter_File>
/home/malgorzata/Desktop/rDock_2013.1_src/data/scripts/soft_docking.prm

>  <Rbt.Receptor>
cavity.prm

>  <SCORE>
-4.85548

>  <SCORE.INTER>
-23.2686

>  <SCORE.INTER.CONST>
1

>  <SCORE.INTER.POLAR>
-0.0134991

>  <SCORE.INTER.REPUL>
0

>  <SCORE.INTER.ROT>
12

>  <SCORE.INTER.VDW>
-40.6227

>  <SCORE.INTER.norm>
-0.567526

>  <SCORE.INTRA>
10.2853

>  <SCORE.INTRA.DIHEDRAL>
48.6549

>  <SCORE.INTRA.DIHEDRAL.0>
12.9748

>  <SCORE.INTRA.POLAR>
0.058673

>  <SCORE.INTRA.POLAR.0>
-0.058673

>  <SCORE.INTRA.REPUL>
0

>  <SCORE.INTRA.REPUL.0>
0

>  <SCORE.INTRA.VDW>
0.354834

>  <SCORE.INTRA.VDW.0>
-4.98062

>  <SCORE.INTRA.norm>
0.250861

>  <SCORE.RESTR>
6.13748

>  <SCORE.RESTR.CAVITY>
1.2275

>  <SCORE.RESTR.norm>
0.149695

>  <SCORE.SYSTEM>
1.99031

>  <SCORE.SYSTEM.CONST>
0

>  <SCORE.SYSTEM.DIHEDRAL>
8.43397

>  <SCORE.SYSTEM.POLAR>
-0.0235412

>  <SCORE.SYSTEM.REPUL>
0.0467333

>  <SCORE.SYSTEM.VDW>
-2.3803

>  <SCORE.SYSTEM.norm>
0.0485442

>  <SCORE.heavy>
41

>  <SCORE.norm>
-0.118426

$$$$
570.pdb
  rDOCK(R)          3D
libRbt.so/2013.1/901 2013/11/27
 43 47  0  0  0  0  0  0  0  0999 V2000
   50.5762  -34.5835   19.7527 N   0  0  0  0  0  0
   50.0540  -33.5140   18.8230 C   0  0  0  0  0  0
   49.2976  -34.0934   17.5869 C   0  0  0  0  0  0
   48.2130  -35.1200   17.9323 C   0  0  0  0  0  0
   46.8791  -34.6511   18.1687 C   0  0  0  0  0  0
   48.5086  -36.5203   18.0224 C   0  0  0  0  0  0
   45.8502  -35.5573   18.4886 C   0  0  0  0  0  0
   47.4829  -37.4383   18.3431 C   0  0  0  0  0  0
   46.1162  -36.9603   18.5849 C   0  0  0  0  0  0
   44.9862  -37.7685   18.9138 O   0  0  0  0  0  0
   51.1291  -34.5516   21.1042 C   0  0  0  0  0  0
   52.5328  -34.8970   21.3558 C   0  0  0  0  0  0
   52.9908  -34.8351   22.7239 C   0  0  0  0  0  0
   52.1265  -34.4608   23.7794 C   0  0  0  0  0  0
   50.7832  -34.1341   23.5194 C   0  0  0  0  0  0
   50.2896  -34.1757   22.2138 C   0  0  0  0  0  0
   55.1107  -35.1062   20.2287 C   0  0  0  0  0  0
   55.6620  -34.0962   19.3529 C   0  0  0  0  0  0
   57.0679  -33.8706   19.3019 C   0  0  0  0  0  0
   57.9376  -34.6480   20.1222 C   0  0  0  0  0  0
   57.4035  -35.6456   20.9869 C   0  0  0  0  0  0
   56.0060  -35.8721   21.0396 C   0  0  0  0  0  0
   53.6068  -35.3294   20.2704 C   0  0  0  0  0  0
   53.1744  -35.8972   19.2464 O   0  0  0  0  0  0
   47.4412  -42.3011   16.6622 O   0  0  0  0  0  0
   47.7871  -41.4218   15.6423 C   0  0  0  0  0  0
   46.9089  -40.3222   15.7888 N   0  0  0  0  0  0
   46.0892  -40.5946   16.8629 C   0  0  0  0  0  0
   46.3980  -41.8711   17.4540 C   0  0  0  0  0  0
   45.7464  -42.5755   18.6508 C   0  0  0  0  0  0
   48.7746  -41.5628   14.6677 C   0  0  0  0  0  0
   48.5121  -41.3550   13.2634 C   0  0  0  0  0  0
   49.5536  -41.5167   12.3131 C   0  0  0  0  0  0
   50.8562  -41.8845   12.7400 C   0  0  0  0  0  0
   51.1304  -42.0912   14.1194 C   0  0  0  0  0  0
   50.0984  -41.9340   15.0780 C   0  0  0  0  0  0
   45.0595  -39.2105   18.8033 C   0  0  0  0  0  0
   44.9798  -39.5819   17.3101 C   0  0  0  0  0  0
   49.1539  -31.3537   19.0993 O   0  0  0  0  0  0
   48.6032  -32.8811   20.6255 O   0  0  0  0  0  0
   49.1930  -32.5226   19.5546 C   0  0  0  0  0  0
   50.5354  -35.4891   19.3685 H   0  0  0  0  0  0
   47.9374  -32.3372   20.9983 H   0  0  0  0  0  0
  1  2  1  0  0  0
  1 11  1  0  0  0
  1 42  1  0  0  0
  2  3  1  0  0  0
  2 41  1  0  0  0
  3  4  1  0  0  0
  4  5  2  0  0  0
  4  6  1  0  0  0
  5  7  1  0  0  0
  6  8  2  0  0  0
  7  9  2  0  0  0
  8  9  1  0  0  0
  9 10  1  0  0  0
 10 37  1  0  0  0
 11 12  2  0  0  0
 11 16  1  0  0  0
 12 13  1  0  0  0
 12 23  1  0  0  0
 13 14  2  0  0  0
 14 15  1  0  0  0
 15 16  2  0  0  0
 17 18  2  0  0  0
 17 22  1  0  0  0
 17 23  1  0  0  0
 18 19  1  0  0  0
 19 20  2  0  0  0
 20 21  1  0  0  0
 21 22  2  0  0  0
 23 24  2  0  0  0
 25 26  1  0  0  0
 25 29  1  0  0  0
 26 27  2  0  0  0
 26 31  1  0  0  0
 27 28  1  0  0  0
 28 29  2  0  0  0
 28 38  1  0  0  0
 29 30  1  0  0  0
 31 32  2  0  0  0
 31 36  1  0  0  0
 32 33  1  0  0  0
 33 34  2  0  0  0
 34 35  1  0  0  0
 35 36  2  0  0  0
 37 38  1  0  0  0
 39 41  2  0  0  0
 40 41  1  0  0  0
 40 43  1  0  0  0
M  END
>  <CHROM.0>
77.91321706,-13.19695280,-46.93761664,-10.02689683

>  <CHROM.1>
-168.11276246,-113.58685018,50.71805744,151.35209028,90.15233991,168.68061063
-75.62979356,148.37781349,-104.04399736,130.06756940,-126.93481507,131.46711891
-168.01467040,49.93205789,-37.02335245,18.51162531,0.93224522,0.01818015
0.64587441

>  <FORMUL>
      570    C34 H30 N2 O5

>  <HET>
 570  D 200      41

>  <HETNAM>
     570 2-(2-BENZOYL-PHENYLAMINO)-3-{4-[2-(5-METHYL-2-PHENYL-OX
   2 570 AZOL-4-YL)-ETHOXY]-PHENYL}-PROPIONIC ACID

>  <HETSYN>
     570 GI262570

>  <Name>
570.pdb

>  <RI>
0

>  <Rbt.Current_Directory>
/home/malgorzata/Desktop/rDOCK_IFD/Wyniki/14_ppar-gamma

>  <Rbt.Executable>
rbdock ($Id: //depot/dev/client3/rdock/2013.1/src/exe/rbdock.cxx#4 $)

>  <Rbt.Library>
libRbt.so (2013.1, Build901 2013/11/27)

>  <Rbt.Parameter_File>
/home/malgorzata/Desktop/rDock_2013.1_src/data/scripts/soft_docking.prm

>  <Rbt.Receptor>
cavity.prm

>  <SCORE>
-16.8901

>  <SCORE.INTER>
-29.6424

>  <SCORE.INTER.CONST>
1

>  <SCORE.INTER.POLAR>
-0.0301508

>  <SCORE.INTER.REPUL>
0

>  <SCORE.INTER.ROT>
12

>  <SCORE.INTER.VDW>
-46.9399

>  <SCORE.INTER.norm>
-0.722987

>  <SCORE.INTRA>
7.38951

>  <SCORE.INTRA.DIHEDRAL>
36.0333

>  <SCORE.INTRA.DIHEDRAL.0>
12.9748

>  <SCORE.INTRA.POLAR>
0.058673

>  <SCORE.INTRA.POLAR.0>
-0.058673

>  <SCORE.INTRA.REPUL>
0

>  <SCORE.INTRA.REPUL.0>
0

>  <SCORE.INTRA.VDW>
-0.0166334

>  <SCORE.INTRA.VDW.0>
-4.98062

>  <SCORE.INTRA.norm>
0.180232

>  <SCORE.RESTR>
2.5077

>  <SCORE.RESTR.CAVITY>
0.501541

>  <SCORE.RESTR.norm>
0.0611635

>  <SCORE.SYSTEM>
2.85518

>  <SCORE.SYSTEM.CONST>
0

>  <SCORE.SYSTEM.DIHEDRAL>
10.5801

>  <SCORE.SYSTEM.POLAR>
-0.0366601

>  <SCORE.SYSTEM.REPUL>
0.0467333

>  <SCORE.SYSTEM.VDW>
-2.54387

>  <SCORE.SYSTEM.norm>
0.0696385

>  <SCORE.heavy>
41

>  <SCORE.norm>
-0.411953

$$$$
570.pdb
  rDOCK(R)          3D
libRbt.so/2013.1/901 2013/11/27
 43 47  0  0  0  0  0  0  0  0999 V2000
   49.7317  -32.7487   17.4309 N   0  0  0  0  0  0
   49.4184  -33.5497   16.1895 C   0  0  0  0  0  0
   47.9434  -34.0578   16.1450 C   0  0  0  0  0  0
   47.7612  -35.5131   16.5907 C   0  0  0  0  0  0
   46.5243  -36.1709   16.2868 C   0  0  0  0  0  0
   48.7931  -36.2147   17.2973 C   0  0  0  0  0  0
   46.3121  -37.5072   16.6759 C   0  0  0  0  0  0
   48.5902  -37.5564   17.6926 C   0  0  0  0  0  0
   47.3245  -38.2320   17.3818 C   0  0  0  0  0  0
   46.9830  -39.5776   17.7153 O   0  0  0  0  0  0
   49.2546  -32.8128   18.8099 C   0  0  0  0  0  0
   50.1946  -32.9191   19.9316 C   0  0  0  0  0  0
   49.6307  -32.9746   21.2598 C   0  0  0  0  0  0
   48.2331  -32.9314   21.4749 C   0  0  0  0  0  0
   47.3469  -32.8306   20.3871 C   0  0  0  0  0  0
   47.8398  -32.7714   19.0819 C   0  0  0  0  0  0
   52.7816  -33.8383   20.5812 C   0  0  0  0  0  0
   52.3130  -34.8343   21.5190 C   0  0  0  0  0  0
   53.2381  -35.6549   22.2268 C   0  0  0  0  0  0
   54.6376  -35.4916   22.0075 C   0  0  0  0  0  0
   55.1082  -34.5123   21.0866 C   0  0  0  0  0  0
   54.1906  -33.6950   20.3815 C   0  0  0  0  0  0
   51.7775  -32.9745   19.8336 C   0  0  0  0  0  0
   52.3229  -32.1514   19.0700 O   0  0  0  0  0  0
   48.2661  -42.1451   13.9457 O   0  0  0  0  0  0
   47.6006  -40.9259   14.0070 C   0  0  0  0  0  0
   47.3887  -40.6896   15.3858 N   0  0  0  0  0  0
   47.9192  -41.7621   16.0701 C   0  0  0  0  0  0
   48.4929  -42.7312   15.1724 C   0  0  0  0  0  0
   49.1802  -44.0660   15.4872 C   0  0  0  0  0  0
   47.2077  -40.0938   12.9590 C   0  0  0  0  0  0
   46.5913  -40.6014   11.7564 C   0  0  0  0  0  0
   46.2151  -39.7097   10.7185 C   0  0  0  0  0  0
   46.4449  -38.3162   10.8589 C   0  0  0  0  0  0
   47.0495  -37.8012   12.0378 C   0  0  0  0  0  0
   47.4308  -38.6816   13.0809 C   0  0  0  0  0  0
   47.9662  -40.4564   18.3137 C   0  0  0  0  0  0
   47.8542  -41.8347   17.6343 C   0  0  0  0  0  0
   49.5397  -31.5451   14.9566 O   0  0  0  0  0  0
   50.1654  -33.4124   13.9140 O   0  0  0  0  0  0
   49.7526  -32.7818   14.9413 C   0  0  0  0  0  0
   50.3943  -32.0364   17.2794 H   0  0  0  0  0  0
   49.9244  -33.1205   13.0568 H   0  0  0  0  0  0
  1  2  1  0  0  0
  1 11  1  0  0  0
  1 42  1  0  0  0
  2  3  1  0  0  0
  2 41  1  0  0  0
  3  4  1  0  0  0
  4  5  2  0  0  0
  4  6  1  0  0  0
  5  7  1  0  0  0
  6  8  2  0  0  0
  7  9  2  0  0  0
  8  9  1  0  0  0
  9 10  1  0  0  0
 10 37  1  0  0  0
 11 12  2  0  0  0
 11 16  1  0  0  0
 12 13  1  0  0  0
 12 23  1  0  0  0
 13 14  2  0  0  0
 14 15  1  0  0  0
 15 16  2  0  0  0
 17 18  2  0  0  0
 17 22  1  0  0  0
 17 23  1  0  0  0
 18 19  1  0  0  0
 19 20  2  0  0  0
 20 21  1  0  0  0
 21 22  2  0  0  0
 23 24  2  0  0  0
 25 26  1  0  0  0
 25 29  1  0  0  0
 26 27  2  0  0  0
 26 31  1  0  0  0
 27 28  1  0  0  0
 28 29  2  0  0  0
 28 38  1  0  0  0
 29 30  1  0  0  0
 31 32  2  0  0  0
 31 36  1  0  0  0
 32 33  1  0  0  0
 33 34  2  0  0  0
 34 35  1  0  0  0
 35 36  2  0  0  0
 37 38  1  0  0  0
 39 41  2  0  0  0
 40 41  1  0  0  0
 40 43  1  0  0  0
M  END
>  <CHROM.0>
-61.12921035,31.81893505,10.58262437,-21.59506067

>  <CHROM.1>
32.57922727,126.30966503,-98.73210261,-36.73969016,-165.19171409,174.00816198
-137.05104828,-137.93065114,2.63080252,43.74347626,-33.89797703,52.14476197
144.78095987,49.11063778,-36.56248126,16.99032016,0.70839435,-1.02067452
-0.09171926

>  <FORMUL>
      570    C34 H30 N2 O5

>  <HET>
 570  D 200      41

>  <HETNAM>
     570 2-(2-BENZOYL-PHENYLAMINO)-3-{4-[2-(5-METHYL-2-PHENYL-OX
   2 570 AZOL-4-YL)-ETHOXY]-PHENYL}-PROPIONIC ACID

>  <HETSYN>
     570 GI262570

>  <Name>
570.pdb

>  <RI>
0

>  <Rbt.Current_Directory>
/home/malgorzata/Desktop/rDOCK_IFD/Wyniki/14_ppar-gamma

>  <Rbt.Executable>
rbdock ($Id: //depot/dev/client3/rdock/2013.1/src/exe/rbdock.cxx#4 $)

>  <Rbt.Library>
libRbt.so (2013.1, Build901 2013/11/27)

>  <Rbt.Parameter_File>
/home/malgorzata/Desktop/rDock_2013.1_src/data/scripts/soft_docking.prm

>  <Rbt.Receptor>
cavity.prm

>  <SCORE>
-16.6128

>  <SCORE.INTER>
-27.2257

>  <SCORE.INTER.CONST>
1

>  <SCORE.INTER.POLAR>
-0.302551

>  <SCORE.INTER.REPUL>
0

>  <SCORE.INTER.ROT>
12

>  <SCORE.INTER.VDW>
-43.5971

>  <SCORE.INTER.norm>
-0.664042

>  <SCORE.INTRA>
6.67515

>  <SCORE.INTRA.DIHEDRAL>
30.3536

>  <SCORE.INTRA.DIHEDRAL.0>
12.9748

>  <SCORE.INTRA.POLAR>
0.058673

>  <SCORE.INTRA.POLAR.0>
-0.058673

>  <SCORE.INTRA.REPUL>
0

>  <SCORE.INTRA.REPUL.0>
0

>  <SCORE.INTRA.VDW>
0.404944

>  <SCORE.INTRA.VDW.0>
-4.98062

>  <SCORE.INTRA.norm>
0.162809

>  <SCORE.RESTR>
3.6059

>  <SCORE.RESTR.CAVITY>
0.72118

>  <SCORE.RESTR.norm>
0.0879487

>  <SCORE.SYSTEM>
0.331938

>  <SCORE.SYSTEM.CONST>
0

>  <SCORE.SYSTEM.DIHEDRAL>
4.04694

>  <SCORE.SYSTEM.POLAR>
-0.0903014

>  <SCORE.SYSTEM.REPUL>
0.0467333

>  <SCORE.SYSTEM.VDW>
-1.61817

>  <SCORE.SYSTEM.norm>
0.00809606

>  <SCORE.heavy>
41

>  <SCORE.norm>
-0.405189

$$$$
570.pdb
  rDOCK(R)          3D
libRbt.so/2013.1/901 2013/11/27
 43 47  0  0  0  0  0  0  0  0999 V2000
   46.3767  -37.9187   13.6902 N   0  0  0  0  0  0
   45.1703  -37.0649   13.3798 C   0  0  0  0  0  0
   45.4856  -35.5363   13.3803 C   0  0  0  0  0  0
   46.4368  -35.0864   14.4949 C   0  0  0  0  0  0
   45.8731  -34.5515   15.6996 C   0  0  0  0  0  0
   47.8599  -35.1897   14.3522 C   0  0  0  0  0  0
   46.7075  -34.1259   16.7505 C   0  0  0  0  0  0
   48.7066  -34.7650   15.4011 C   0  0  0  0  0  0
   48.1312  -34.2177   16.6357 C   0  0  0  0  0  0
   48.8603  -33.7541   17.7725 O   0  0  0  0  0  0
   47.2127  -38.8015   12.8806 C   0  0  0  0  0  0
   47.4289  -40.2009   13.2649 C   0  0  0  0  0  0
   48.2688  -40.9981   12.4022 C   0  0  0  0  0  0
   48.8618  -40.4569   11.2374 C   0  0  0  0  0  0
   48.6442  -39.1124   10.8854 C   0  0  0  0  0  0
   47.8384  -38.2981   11.6838 C   0  0  0  0  0  0
   47.3688  -42.0958   15.3543 C   0  0  0  0  0  0
   46.8123  -42.3769   16.6591 C   0  0  0  0  0  0
   47.3056  -43.4628   17.4385 C   0  0  0  0  0  0
   48.3569  -44.2788   16.9262 C   0  0  0  0  0  0
   48.9118  -44.0087   15.6426 C   0  0  0  0  0  0
   48.4233  -42.9295   14.8655 C   0  0  0  0  0  0
   46.8261  -40.9336   14.5370 C   0  0  0  0  0  0
   45.6999  -40.5572   14.9218 O   0  0  0  0  0  0
   53.8700  -32.7470   20.2305 O   0  0  0  0  0  0
   54.1058  -34.0840   20.5304 C   0  0  0  0  0  0
   52.8772  -34.7404   20.2832 N   0  0  0  0  0  0
   51.9794  -33.7822   19.8638 C   0  0  0  0  0  0
   52.5822  -32.4749   19.8214 C   0  0  0  0  0  0
   51.9644  -31.1280   19.4247 C   0  0  0  0  0  0
   55.2820  -34.6812   20.9831 C   0  0  0  0  0  0
   55.9482  -34.2609   22.1928 C   0  0  0  0  0  0
   57.1460  -34.9008   22.6048 C   0  0  0  0  0  0
   57.6935  -35.9551   21.8283 C   0  0  0  0  0  0
   57.0481  -36.3812   20.6356 C   0  0  0  0  0  0
   55.8520  -35.7492   20.2128 C   0  0  0  0  0  0
   50.2282  -34.1776   17.9882 C   0  0  0  0  0  0
   50.5018  -34.1614   19.5044 C   0  0  0  0  0  0
   44.8180  -38.6080   11.6339 O   0  0  0  0  0  0
   43.7807  -36.6425   11.4705 O   0  0  0  0  0  0
   44.5269  -37.4732   12.0841 C   0  0  0  0  0  0
   46.6578  -37.8702   14.6325 H   0  0  0  0  0  0
   43.1757  -36.1123   11.9511 H   0  0  0  0  0  0
  1  2  1  0  0  0
  1 11  1  0  0  0
  1 42  1  0  0  0
  2  3  1  0  0  0
  2 41  1  0  0  0
  3  4  1  0  0  0
  4  5  2  0  0  0
  4  6  1  0  0  0
  5  7  1  0  0  0
  6  8  2  0  0  0
  7  9  2  0  0  0
  8  9  1  0  0  0
  9 10  1  0  0  0
 10 37  1  0  0  0
 11 12  2  0  0  0
 11 16  1  0  0  0
 12 13  1  0  0  0
 12 23  1  0  0  0
 13 14  2  0  0  0
 14 15  1  0  0  0
 15 16  2  0  0  0
 17 18  2  0  0  0
 17 22  1  0  0  0
 17 23  1  0  0  0
 18 19  1  0  0  0
 19 20  2  0  0  0
 20 21  1  0  0  0
 21 22  2  0  0  0
 23 24  2  0  0  0
 25 26  1  0  0  0
 25 29  1  0  0  0
 26 27  2  0  0  0
 26 31  1  0  0  0
 27 28  1  0  0  0
 28 29  2  0  0  0
 28 38  1  0  0  0
 29 30  1  0  0  0
 31 32  2  0  0  0
 31 36  1  0  0  0
 32 33  1  0  0  0
 33 34  2  0  0  0
 34 35  1  0  0  0
 35 36  2  0  0  0
 37 38  1  0  0  0
 39 41  2  0  0  0
 40 41  1  0  0  0
 40 43  1  0  0  0
M  END
>  <CHROM.0>
54.50986278,-36.72154334,120.26197792,-111.08111554

>  <CHROM.1>
-108.06526045,-124.94144727,-40.05588583,17.74459823,-96.40719387,159.55943990
-151.45705565,-151.24698856,164.65131794,57.26781632,-105.00276125,-146.86467947
-41.73876601,49.39500403,-37.08893528,16.35196546,2.60844402,0.68788466,-3.02136707

>  <FORMUL>
      570    C34 H30 N2 O5

>  <HET>
 570  D 200      41

>  <HETNAM>
     570 2-(2-BENZOYL-PHENYLAMINO)-3-{4-[2-(5-METHYL-2-PHENYL-OX
   2 570 AZOL-4-YL)-ETHOXY]-PHENYL}-PROPIONIC ACID

>  <HETSYN>
     570 GI262570

>  <Name>
570.pdb

>  <RI>
0

>  <Rbt.Current_Directory>
/home/malgorzata/Desktop/rDOCK_IFD/Wyniki/14_ppar-gamma

>  <Rbt.Executable>
rbdock ($Id: //depot/dev/client3/rdock/2013.1/src/exe/rbdock.cxx#4 $)

>  <Rbt.Library>
libRbt.so (2013.1, Build901 2013/11/27)

>  <Rbt.Parameter_File>
/home/malgorzata/Desktop/rDock_2013.1_src/data/scripts/soft_docking.prm

>  <Rbt.Receptor>
cavity.prm

>  <SCORE>
-15.0667

>  <SCORE.INTER>
-27.9697

>  <SCORE.INTER.CONST>
1

>  <SCORE.INTER.POLAR>
-0.13175

>  <SCORE.INTER.REPUL>
0

>  <SCORE.INTER.ROT>
12

>  <SCORE.INTER.VDW>
-44.9217

>  <SCORE.INTER.norm>
-0.682187

>  <SCORE.INTRA>
7.8256

>  <SCORE.INTRA.DIHEDRAL>
34.0281

>  <SCORE.INTRA.DIHEDRAL.0>
12.9748

>  <SCORE.INTRA.POLAR>
0.058673

>  <SCORE.INTRA.POLAR.0>
-0.058673

>  <SCORE.INTRA.REPUL>
0

>  <SCORE.INTRA.REPUL.0>
0

>  <SCORE.INTRA.VDW>
0.820491

>  <SCORE.INTRA.VDW.0>
-4.98062

>  <SCORE.INTRA.norm>
0.190868

>  <SCORE.RESTR>
3.61526

>  <SCORE.RESTR.CAVITY>
0.723053

>  <SCORE.RESTR.norm>
0.0881772

>  <SCORE.SYSTEM>
1.46208

>  <SCORE.SYSTEM.CONST>
0

>  <SCORE.SYSTEM.DIHEDRAL>
10.3139

>  <SCORE.SYSTEM.POLAR>
-0.390586

>  <SCORE.SYSTEM.REPUL>
0.0467333

>  <SCORE.SYSTEM.VDW>
-2.60053

>  <SCORE.SYSTEM.norm>
0.0356604

>  <SCORE.heavy>
41

>  <SCORE.norm>
-0.367481

$$$$
570.pdb
  rDOCK(R)          3D
libRbt.so/2013.1/901 2013/11/27
 43 47  0  0  0  0  0  0  0  0999 V2000
   51.3675  -33.5116   21.9119 N   0  0  0  0  0  0
   49.9257  -33.7806   21.5518 C   0  0  0  0  0  0
   49.6953  -35.2134   20.9773 C   0  0  0  0  0  0
   49.1972  -35.2418   19.5279 C   0  0  0  0  0  0
   47.8028  -35.0200   19.2802 C   0  0  0  0  0  0
   50.0913  -35.4845   18.4333 C   0  0  0  0  0  0
   47.2999  -35.0365   17.9653 C   0  0  0  0  0  0
   49.5966  -35.5034   17.1095 C   0  0  0  0  0  0
   48.1691  -35.2758   16.8537 C   0  0  0  0  0  0
   47.5329  -35.2642   15.5756 O   0  0  0  0  0  0
   52.5759  -33.3077   21.1171 C   0  0  0  0  0  0
   53.8133  -34.0352   21.4213 C   0  0  0  0  0  0
   54.9565  -33.7699   20.5799 C   0  0  0  0  0  0
   54.8917  -32.8475   19.5093 C   0  0  0  0  0  0
   53.6970  -32.1581   19.2332 C   0  0  0  0  0  0
   52.5611  -32.3792   20.0148 C   0  0  0  0  0  0
   53.0962  -36.1808   23.1071 C   0  0  0  0  0  0
   52.4248  -36.0022   24.3754 C   0  0  0  0  0  0
   51.5506  -37.0078   24.8802 C   0  0  0  0  0  0
   51.3367  -38.1997   24.1271 C   0  0  0  0  0  0
   51.9946  -38.3845   22.8776 C   0  0  0  0  0  0
   52.8644  -37.3864   22.3733 C   0  0  0  0  0  0
   54.0232  -35.0940   22.5846 C   0  0  0  0  0  0
   55.0869  -35.0142   23.2326 O   0  0  0  0  0  0
   45.2856  -39.1689   18.0892 O   0  0  0  0  0  0
   45.6475  -40.0934   17.1158 C   0  0  0  0  0  0
   45.8692  -39.3301   15.9454 N   0  0  0  0  0  0
   45.6254  -38.0117   16.2655 C   0  0  0  0  0  0
   45.2388  -37.8649   17.6450 C   0  0  0  0  0  0
   44.8719  -36.5964   18.4258 C   0  0  0  0  0  0
   45.7701  -41.4778   17.2316 C   0  0  0  0  0  0
   46.7003  -42.2422   16.4351 C   0  0  0  0  0  0
   46.7805  -43.6506   16.5905 C   0  0  0  0  0  0
   45.9457  -44.3122   17.5283 C   0  0  0  0  0  0
   45.0258  -43.5729   18.3208 C   0  0  0  0  0  0
   44.9354  -42.1661   18.1741 C   0  0  0  0  0  0
   47.2360  -36.5067   14.8936 C   0  0  0  0  0  0
   45.7710  -36.8793   15.1919 C   0  0  0  0  0  0
   47.7846  -33.4258   22.4700 O   0  0  0  0  0  0
   49.5124  -33.3487   23.8750 O   0  0  0  0  0  0
   49.0113  -33.5232   22.7167 C   0  0  0  0  0  0
   51.5255  -33.4639   22.8824 H   0  0  0  0  0  0
   49.6439  -32.4807   24.2028 H   0  0  0  0  0  0
  1  2  1  0  0  0
  1 11  1  0  0  0
  1 42  1  0  0  0
  2  3  1  0  0  0
  2 41  1  0  0  0
  3  4  1  0  0  0
  4  5  2  0  0  0
  4  6  1  0  0  0
  5  7  1  0  0  0
  6  8  2  0  0  0
  7  9  2  0  0  0
  8  9  1  0  0  0
  9 10  1  0  0  0
 10 37  1  0  0  0
 11 12  2  0  0  0
 11 16  1  0  0  0
 12 13  1  0  0  0
 12 23  1  0  0  0
 13 14  2  0  0  0
 14 15  1  0  0  0
 15 16  2  0  0  0
 17 18  2  0  0  0
 17 22  1  0  0  0
 17 23  1  0  0  0
 18 19  1  0  0  0
 19 20  2  0  0  0
 20 21  1  0  0  0
 21 22  2  0  0  0
 23 24  2  0  0  0
 25 26  1  0  0  0
 25 29  1  0  0  0
 26 27  2  0  0  0
 26 31  1  0  0  0
 27 28  1  0  0  0
 28 29  2  0  0  0
 28 38  1  0  0  0
 29 30  1  0  0  0
 31 32  2  0  0  0
 31 36  1  0  0  0
 32 33  1  0  0  0
 33 34  2  0  0  0
 34 35  1  0  0  0
 35 36  2  0  0  0
 37 38  1  0  0  0
 39 41  2  0  0  0
 40 41  1  0  0  0
 40 43  1  0  0  0
M  END
>  <CHROM.0>
49.70516355,92.94193049,31.98535904,130.74557262

>  <CHROM.1>
70.96124694,-131.42348860,-116.73877667,164.81087805,-80.53263469,-102.60341641
96.36869592,39.36983122,-105.58567694,-150.03975902,-76.34522436,-102.78916494
97.60438075,49.29959686,-36.61497267,19.66819916,0.30741276,-0.81357854,-0.44922848

>  <FORMUL>
      570    C34 H30 N2 O5

>  <HET>
 570  D 200      41

>  <HETNAM>
     570 2-(2-BENZOYL-PHENYLAMINO)-3-{4-[2-(5-METHYL-2-PHENYL-OX
   2 570 AZOL-4-YL)-ETHOXY]-PHENYL}-PROPIONIC ACID

>  <HETSYN>
     570 GI262570

>  <Name>
570.pdb

>  <RI>
0

>  <Rbt.Current_Directory>
/home/malgorzata/Desktop/rDOCK_IFD/Wyniki/14_ppar-gamma

>  <Rbt.Executable>
rbdock ($Id: //depot/dev/client3/rdock/2013.1/src/exe/rbdock.cxx#4 $)

>  <Rbt.Library>
libRbt.so (2013.1, Build901 2013/11/27)

>  <Rbt.Parameter_File>
/home/malgorzata/Desktop/rDock_2013.1_src/data/scripts/soft_docking.prm

>  <Rbt.Receptor>
cavity.prm

>  <SCORE>
-21.9024

>  <SCORE.INTER>
-33.8861

>  <SCORE.INTER.CONST>
1

>  <SCORE.INTER.POLAR>
-0.889318

>  <SCORE.INTER.REPUL>
0

>  <SCORE.INTER.ROT>
12

>  <SCORE.INTER.VDW>
-48.2624

>  <SCORE.INTER.norm>
-0.82649

>  <SCORE.INTRA>
11.4678

>  <SCORE.INTRA.DIHEDRAL>
62.1793

>  <SCORE.INTRA.DIHEDRAL.0>
12.9748

>  <SCORE.INTRA.POLAR>
-0.0439116

>  <SCORE.INTRA.POLAR.0>
-0.058673

>  <SCORE.INTRA.REPUL>
0

>  <SCORE.INTRA.REPUL.0>
0

>  <SCORE.INTRA.VDW>
-0.818741

>  <SCORE.INTRA.VDW.0>
-4.98062

>  <SCORE.INTRA.norm>
0.279703

>  <SCORE.RESTR>
0

>  <SCORE.RESTR.CAVITY>
0

>  <SCORE.RESTR.norm>
0

>  <SCORE.SYSTEM>
0.515899

>  <SCORE.SYSTEM.CONST>
0

>  <SCORE.SYSTEM.DIHEDRAL>
8.70845

>  <SCORE.SYSTEM.POLAR>
-0.552636

>  <SCORE.SYSTEM.REPUL>
0.0467333

>  <SCORE.SYSTEM.VDW>
-2.19303

>  <SCORE.SYSTEM.norm>
0.0125829

>  <SCORE.heavy>
41

>  <SCORE.norm>
-0.534204

$$$$
