570.pdb
  rDOCK(R)          3D
libRbt.so/2013.1/901 2013/11/27
 43 47  0  0  0  0  0  0  0  0999 V2000
   48.8337  -32.7655   19.1674 N   0  0  0  0  0  0
   48.6095  -33.3867   20.5256 C   0  0  0  0  0  0
   47.2085  -34.0598   20.6672 C   0  0  0  0  0  0
   47.0081  -35.2964   19.7840 C   0  0  0  0  0  0
   47.0963  -35.1416   18.3615 C   0  0  0  0  0  0
   46.7365  -36.5854   20.3505 C   0  0  0  0  0  0
   46.9196  -36.2491   17.5106 C   0  0  0  0  0  0
   46.5573  -37.7038   19.5051 C   0  0  0  0  0  0
   46.6479  -37.5474   18.0483 C   0  0  0  0  0  0
   46.4921  -38.5830   17.0779 O   0  0  0  0  0  0
   49.6101  -33.1698   17.9981 C   0  0  0  0  0  0
   51.0545  -32.9218   17.9263 C   0  0  0  0  0  0
   51.7386  -33.3583   16.7319 C   0  0  0  0  0  0
   51.0498  -33.9955   15.6732 C   0  0  0  0  0  0
   49.6644  -34.2238   15.7591 C   0  0  0  0  0  0
   48.9549  -33.8234   16.8932 C   0  0  0  0  0  0
   53.0450  -32.7939   19.9217 C   0  0  0  0  0  0
   54.4297  -32.4967   19.6296 C   0  0  0  0  0  0
   55.4713  -33.0198   20.4489 C   0  0  0  0  0  0
   55.1442  -33.8433   21.5662 C   0  0  0  0  0  0
   53.7832  -34.1422   21.8607 C   0  0  0  0  0  0
   52.7454  -33.6234   21.0477 C   0  0  0  0  0  0
   51.9478  -32.2231   19.0363 C   0  0  0  0  0  0
   51.6983  -31.0263   19.2879 O   0  0  0  0  0  0
   47.0231  -44.0247   17.5711 O   0  0  0  0  0  0
   47.8632  -43.3205   16.7159 C   0  0  0  0  0  0
   47.5721  -41.9564   16.9523 N   0  0  0  0  0  0
   46.5844  -41.9102   17.9128 C   0  0  0  0  0  0
   46.1964  -43.2307   18.3367 C   0  0  0  0  0  0
   45.1436  -43.6542   19.3689 C   0  0  0  0  0  0
   48.7969  -43.8177   15.8070 C   0  0  0  0  0  0
   49.2331  -45.1938   15.8194 C   0  0  0  0  0  0
   50.1899  -45.6456   14.8736 C   0  0  0  0  0  0
   50.7219  -44.7460   13.9135 C   0  0  0  0  0  0
   50.3010  -43.3885   13.8878 C   0  0  0  0  0  0
   49.3470  -42.9248   14.8278 C   0  0  0  0  0  0
   45.5138  -39.6321   17.2764 C   0  0  0  0  0  0
   46.0105  -40.5416   18.4166 C   0  0  0  0  0  0
   49.9683  -34.5099   22.0894 O   0  0  0  0  0  0
   50.3495  -34.9286   19.9342 O   0  0  0  0  0  0
   49.7023  -34.3589   20.8722 C   0  0  0  0  0  0
   48.3585  -31.9120   19.0449 H   0  0  0  0  0  0
   50.5256  -35.8479   19.9776 H   0  0  0  0  0  0
  1  2  1  0  0  0
  1 11  1  0  0  0
  1 42  1  0  0  0
  2  3  1  0  0  0
  2 41  1  0  0  0
  3  4  1  0  0  0
  4  5  2  0  0  0
  4  6  1  0  0  0
  5  7  1  0  0  0
  6  8  2  0  0  0
  7  9  2  0  0  0
  8  9  1  0  0  0
  9 10  1  0  0  0
 10 37  1  0  0  0
 11 12  2  0  0  0
 11 16  1  0  0  0
 12 13  1  0  0  0
 12 23  1  0  0  0
 13 14  2  0  0  0
 14 15  1  0  0  0
 15 16  2  0  0  0
 17 18  2  0  0  0
 17 22  1  0  0  0
 17 23  1  0  0  0
 18 19  1  0  0  0
 19 20  2  0  0  0
 20 21  1  0  0  0
 21 22  2  0  0  0
 23 24  2  0  0  0
 25 26  1  0  0  0
 25 29  1  0  0  0
 26 27  2  0  0  0
 26 31  1  0  0  0
 27 28  1  0  0  0
 28 29  2  0  0  0
 28 38  1  0  0  0
 29 30  1  0  0  0
 31 32  2  0  0  0
 31 36  1  0  0  0
 32 33  1  0  0  0
 33 34  2  0  0  0
 34 35  1  0  0  0
 35 36  2  0  0  0
 37 38  1  0  0  0
 39 41  2  0  0  0
 40 41  1  0  0  0
 40 43  1  0  0  0
M  END
>  <CHROM.0>
103.81654208,90.65395697,9.61088448,-18.19236019

>  <CHROM.1>
-103.96451977,-81.37838305,66.87812215,150.85744034,-60.95656345,-142.83206559
-70.94667880,112.36569295,104.61435461,-13.48039882,53.42802712,-104.46693941
-135.34198505,49.30574563,-37.30717389,18.31008649,1.22679447,0.22489415
0.38677005

>  <FORMUL>
      570    C34 H30 N2 O5

>  <HET>
 570  D 200      41

>  <HETNAM>
     570 2-(2-BENZOYL-PHENYLAMINO)-3-{4-[2-(5-METHYL-2-PHENYL-OX
   2 570 AZOL-4-YL)-ETHOXY]-PHENYL}-PROPIONIC ACID

>  <HETSYN>
     570 GI262570

>  <Name>
570.pdb

>  <RI>
0

>  <Rbt.Current_Directory>
/home/malgorzata/Desktop/rDOCK_IFD/Wyniki/14_ppar-gamma

>  <Rbt.Executable>
rbdock ($Id: //depot/dev/client3/rdock/2013.1/src/exe/rbdock.cxx#4 $)

>  <Rbt.Library>
libRbt.so (2013.1, Build901 2013/11/27)

>  <Rbt.Parameter_File>
/home/malgorzata/Desktop/rDock_2013.1_src/data/scripts/soft_docking.prm

>  <Rbt.Receptor>
cavity.prm

>  <SCORE>
-3.83278

>  <SCORE.INTER>
-16.5941

>  <SCORE.INTER.CONST>
1

>  <SCORE.INTER.POLAR>
-0.0880223

>  <SCORE.INTER.REPUL>
0

>  <SCORE.INTER.ROT>
12

>  <SCORE.INTER.VDW>
-33.6948

>  <SCORE.INTER.norm>
-0.404734

>  <SCORE.INTRA>
9.59485

>  <SCORE.INTRA.DIHEDRAL>
47.6484

>  <SCORE.INTRA.DIHEDRAL.0>
12.9748

>  <SCORE.INTRA.POLAR>
0.058673

>  <SCORE.INTRA.POLAR.0>
-0.058673

>  <SCORE.INTRA.REPUL>
0

>  <SCORE.INTRA.REPUL.0>
0

>  <SCORE.INTRA.VDW>
-0.134325

>  <SCORE.INTRA.VDW.0>
-4.98062

>  <SCORE.INTRA.norm>
0.234021

>  <SCORE.RESTR>
0.180051

>  <SCORE.RESTR.CAVITY>
0.180051

>  <SCORE.RESTR.norm>
0.00439149

>  <SCORE.SYSTEM>
2.9864

>  <SCORE.SYSTEM.CONST>
0

>  <SCORE.SYSTEM.DIHEDRAL>
10.2823

>  <SCORE.SYSTEM.POLAR>
-0.0730596

>  <SCORE.SYSTEM.REPUL>
0.0467333

>  <SCORE.SYSTEM.VDW>
-2.14002

>  <SCORE.SYSTEM.norm>
0.0728389

>  <SCORE.heavy>
41

>  <SCORE.norm>
-0.0934824

$$$$
570.pdb
  rDOCK(R)          3D
libRbt.so/2013.1/901 2013/11/27
 43 47  0  0  0  0  0  0  0  0999 V2000
   46.6524  -40.5855   15.4896 N   0  0  0  0  0  0
   46.2122  -39.5376   16.4841 C   0  0  0  0  0  0
   45.4480  -38.3485   15.8224 C   0  0  0  0  0  0
   46.2300  -37.0304   15.7945 C   0  0  0  0  0  0
   47.0850  -36.7669   14.6744 C   0  0  0  0  0  0
   46.1217  -36.0726   16.8562 C   0  0  0  0  0  0
   47.8223  -35.5696   14.6053 C   0  0  0  0  0  0
   46.8577  -34.8675   16.7967 C   0  0  0  0  0  0
   47.7333  -34.5956   15.6503 C   0  0  0  0  0  0
   48.5297  -33.4266   15.4562 O   0  0  0  0  0  0
   47.9236  -41.2624   15.2462 C   0  0  0  0  0  0
   48.5981  -42.0116   16.3123 C   0  0  0  0  0  0
   49.8497  -42.6496   15.9780 C   0  0  0  0  0  0
   50.4065  -42.5569   14.6808 C   0  0  0  0  0  0
   49.7461  -41.8331   13.6714 C   0  0  0  0  0  0
   48.5317  -41.1988   13.9410 C   0  0  0  0  0  0
   47.3576  -43.3611   18.4570 C   0  0  0  0  0  0
   46.1788  -43.1107   19.2563 C   0  0  0  0  0  0
   45.4805  -44.1879   19.8745 C   0  0  0  0  0  0
   45.9490  -45.5237   19.7026 C   0  0  0  0  0  0
   47.1097  -45.7795   18.9180 C   0  0  0  0  0  0
   47.8061  -44.7104   18.3022 C   0  0  0  0  0  0
   48.0869  -42.1975   17.8031 C   0  0  0  0  0  0
   48.2426  -41.2299   18.5760 O   0  0  0  0  0  0
   51.9612  -33.3572   20.0654 O   0  0  0  0  0  0
   50.9135  -33.5513   20.9586 C   0  0  0  0  0  0
   49.7374  -33.4095   20.1851 N   0  0  0  0  0  0
   50.1295  -33.1338   18.8927 C   0  0  0  0  0  0
   51.5639  -33.0855   18.7738 C   0  0  0  0  0  0
   52.4320  -32.8083   17.5397 C   0  0  0  0  0  0
   50.9724  -33.8229   22.3253 C   0  0  0  0  0  0
   49.7916  -33.8915   23.1529 C   0  0  0  0  0  0
   49.9098  -34.1670   24.5400 C   0  0  0  0  0  0
   51.1892  -34.3745   25.1184 C   0  0  0  0  0  0
   52.3609  -34.3116   24.3160 C   0  0  0  0  0  0
   52.2562  -34.0361   22.9297 C   0  0  0  0  0  0
   49.6376  -33.1391   16.3434 C   0  0  0  0  0  0
   49.0720  -32.9090   17.7580 C   0  0  0  0  0  0
   45.3522  -39.5118   18.6780 O   0  0  0  0  0  0
   44.8485  -41.2776   17.4155 O   0  0  0  0  0  0
   45.3961  -40.1409   17.5929 C   0  0  0  0  0  0
   45.9345  -40.8712   14.8795 H   0  0  0  0  0  0
   44.5542  -41.7760   18.1524 H   0  0  0  0  0  0
  1  2  1  0  0  0
  1 11  1  0  0  0
  1 42  1  0  0  0
  2  3  1  0  0  0
  2 41  1  0  0  0
  3  4  1  0  0  0
  4  5  2  0  0  0
  4  6  1  0  0  0
  5  7  1  0  0  0
  6  8  2  0  0  0
  7  9  2  0  0  0
  8  9  1  0  0  0
  9 10  1  0  0  0
 10 37  1  0  0  0
 11 12  2  0  0  0
 11 16  1  0  0  0
 12 13  1  0  0  0
 12 23  1  0  0  0
 13 14  2  0  0  0
 14 15  1  0  0  0
 15 16  2  0  0  0
 17 18  2  0  0  0
 17 22  1  0  0  0
 17 23  1  0  0  0
 18 19  1  0  0  0
 19 20  2  0  0  0
 20 21  1  0  0  0
 21 22  2  0  0  0
 23 24  2  0  0  0
 25 26  1  0  0  0
 25 29  1  0  0  0
 26 27  2  0  0  0
 26 31  1  0  0  0
 27 28  1  0  0  0
 28 29  2  0  0  0
 28 38  1  0  0  0
 29 30  1  0  0  0
 31 32  2  0  0  0
 31 36  1  0  0  0
 32 33  1  0  0  0
 33 34  2  0  0  0
 34 35  1  0  0  0
 35 36  2  0  0  0
 37 38  1  0  0  0
 39 41  2  0  0  0
 40 41  1  0  0  0
 40 43  1  0  0  0
M  END
>  <CHROM.0>
161.17700965,-44.87264040,65.10778980,33.66102521

>  <CHROM.1>
131.03363435,56.62109495,-109.08554217,156.66629960,88.73974702,-114.21985362
-63.57799873,99.15483180,-131.72309360,174.71314216,-158.34179552,157.80265914
162.29308970,48.45265770,-38.00422383,18.15127734,2.73490544,1.19137919,2.35816091

>  <FORMUL>
      570    C34 H30 N2 O5

>  <HET>
 570  D 200      41

>  <HETNAM>
     570 2-(2-BENZOYL-PHENYLAMINO)-3-{4-[2-(5-METHYL-2-PHENYL-OX
   2 570 AZOL-4-YL)-ETHOXY]-PHENYL}-PROPIONIC ACID

>  <HETSYN>
     570 GI262570

>  <Name>
570.pdb

>  <RI>
0

>  <Rbt.Current_Directory>
/home/malgorzata/Desktop/rDOCK_IFD/Wyniki/14_ppar-gamma

>  <Rbt.Executable>
rbdock ($Id: //depot/dev/client3/rdock/2013.1/src/exe/rbdock.cxx#4 $)

>  <Rbt.Library>
libRbt.so (2013.1, Build901 2013/11/27)

>  <Rbt.Parameter_File>
/home/malgorzata/Desktop/rDock_2013.1_src/data/scripts/soft_docking.prm

>  <Rbt.Receptor>
cavity.prm

>  <SCORE>
-9.9756

>  <SCORE.INTER>
-19.9833

>  <SCORE.INTER.CONST>
1

>  <SCORE.INTER.POLAR>
-0.304869

>  <SCORE.INTER.REPUL>
0

>  <SCORE.INTER.ROT>
12

>  <SCORE.INTER.VDW>
-36.3467

>  <SCORE.INTER.norm>
-0.487397

>  <SCORE.INTRA>
7.77689

>  <SCORE.INTRA.DIHEDRAL>
33.4644

>  <SCORE.INTRA.DIHEDRAL.0>
12.9748

>  <SCORE.INTRA.POLAR>
0.058673

>  <SCORE.INTRA.POLAR.0>
-0.058673

>  <SCORE.INTRA.REPUL>
0

>  <SCORE.INTRA.REPUL.0>
0

>  <SCORE.INTRA.VDW>
0.884513

>  <SCORE.INTRA.VDW.0>
-4.98062

>  <SCORE.INTRA.norm>
0.18968

>  <SCORE.RESTR>
0.755062

>  <SCORE.RESTR.CAVITY>
0.755062

>  <SCORE.RESTR.norm>
0.0184162

>  <SCORE.SYSTEM>
1.47573

>  <SCORE.SYSTEM.CONST>
0

>  <SCORE.SYSTEM.DIHEDRAL>
8.10237

>  <SCORE.SYSTEM.POLAR>
-0.121787

>  <SCORE.SYSTEM.REPUL>
0.0467333

>  <SCORE.SYSTEM.VDW>
-2.39504

>  <SCORE.SYSTEM.norm>
0.0359935

>  <SCORE.heavy>
41

>  <SCORE.norm>
-0.243307

$$$$
570.pdb
  rDOCK(R)          3D
libRbt.so/2013.1/901 2013/11/27
 43 47  0  0  0  0  0  0  0  0999 V2000
   48.0218  -44.3145   17.4614 N   0  0  0  0  0  0
   48.0836  -42.8376   17.7708 C   0  0  0  0  0  0
   47.0265  -42.0023   16.9829 C   0  0  0  0  0  0
   47.1393  -40.4869   17.1837 C   0  0  0  0  0  0
   45.9606  -39.7562   17.5466 C   0  0  0  0  0  0
   48.3867  -39.7999   17.0152 C   0  0  0  0  0  0
   46.0162  -38.3631   17.7420 C   0  0  0  0  0  0
   48.4534  -38.4014   17.2088 C   0  0  0  0  0  0
   47.2476  -37.6515   17.5811 C   0  0  0  0  0  0
   47.1670  -36.2446   17.8101 O   0  0  0  0  0  0
   47.5149  -45.0781   16.3240 C   0  0  0  0  0  0
   46.7671  -46.3248   16.5227 C   0  0  0  0  0  0
   46.3037  -47.0100   15.3391 C   0  0  0  0  0  0
   46.5595  -46.5063   14.0421 C   0  0  0  0  0  0
   47.2794  -45.3099   13.8709 C   0  0  0  0  0  0
   47.7484  -44.6065   14.9823 C   0  0  0  0  0  0
   46.7482  -46.5687   19.3334 C   0  0  0  0  0  0
   47.3352  -47.5206   20.2501 C   0  0  0  0  0  0
   47.6623  -47.1362   21.5825 C   0  0  0  0  0  0
   47.4083  -45.8011   22.0143 C   0  0  0  0  0  0
   46.8294  -44.8572   21.1186 C   0  0  0  0  0  0
   46.5031  -45.2367   19.7932 C   0  0  0  0  0  0
   46.4091  -46.9983   17.9143 C   0  0  0  0  0  0
   45.7995  -48.0867   17.8721 O   0  0  0  0  0  0
   52.3264  -33.3424   17.6059 O   0  0  0  0  0  0
   52.6114  -34.2232   18.6433 C   0  0  0  0  0  0
   51.5742  -35.1847   18.6071 N   0  0  0  0  0  0
   50.7293  -34.8353   17.5756 C   0  0  0  0  0  0
   51.1786  -33.6429   16.9044 C   0  0  0  0  0  0
   50.5539  -32.8963   15.7188 C   0  0  0  0  0  0
   53.6751  -34.1929   19.5448 C   0  0  0  0  0  0
   54.2789  -32.9591   19.9890 C   0  0  0  0  0  0
   55.3628  -32.9866   20.9047 C   0  0  0  0  0  0
   55.8575  -34.2268   21.3855 C   0  0  0  0  0  0
   55.2724  -35.4499   20.9584 C   0  0  0  0  0  0
   54.1902  -35.4358   20.0433 C   0  0  0  0  0  0
   48.3236  -35.5112   18.2805 C   0  0  0  0  0  0
   49.4554  -35.6883   17.2502 C   0  0  0  0  0  0
   46.9881  -41.9003   19.6348 O   0  0  0  0  0  0
   48.8896  -42.9947   20.0247 O   0  0  0  0  0  0
   47.9692  -42.5803   19.2473 C   0  0  0  0  0  0
   48.4015  -44.8790   18.1730 H   0  0  0  0  0  0
   49.7859  -42.9509   19.7549 H   0  0  0  0  0  0
  1  2  1  0  0  0
  1 11  1  0  0  0
  1 42  1  0  0  0
  2  3  1  0  0  0
  2 41  1  0  0  0
  3  4  1  0  0  0
  4  5  2  0  0  0
  4  6  1  0  0  0
  5  7  1  0  0  0
  6  8  2  0  0  0
  7  9  2  0  0  0
  8  9  1  0  0  0
  9 10  1  0  0  0
 10 37  1  0  0  0
 11 12  2  0  0  0
 11 16  1  0  0  0
 12 13  1  0  0  0
 12 23  1  0  0  0
 13 14  2  0  0  0
 14 15  1  0  0  0
 15 16  2  0  0  0
 17 18  2  0  0  0
 17 22  1  0  0  0
 17 23  1  0  0  0
 18 19  1  0  0  0
 19 20  2  0  0  0
 20 21  1  0  0  0
 21 22  2  0  0  0
 23 24  2  0  0  0
 25 26  1  0  0  0
 25 29  1  0  0  0
 26 27  2  0  0  0
 26 31  1  0  0  0
 27 28  1  0  0  0
 28 29  2  0  0  0
 28 38  1  0  0  0
 29 30  1  0  0  0
 31 32  2  0  0  0
 31 36  1  0  0  0
 32 33  1  0  0  0
 33 34  2  0  0  0
 34 35  1  0  0  0
 35 36  2  0  0  0
 37 38  1  0  0  0
 39 41  2  0  0  0
 40 41  1  0  0  0
 40 43  1  0  0  0
M  END
>  <CHROM.0>
170.68464298,-65.43210625,-116.28283863,172.61234841

>  <CHROM.1>
22.98556194,-138.95770644,-175.10035734,-118.44060070,-129.11302906,151.73691601
59.20918861,-1.18285749,-129.68409841,31.58217697,73.38216341,174.78136439
38.40367362,49.00036145,-40.34010098,18.23904275,-2.27138694,-0.82807443
-0.47713281

>  <FORMUL>
      570    C34 H30 N2 O5

>  <HET>
 570  D 200      41

>  <HETNAM>
     570 2-(2-BENZOYL-PHENYLAMINO)-3-{4-[2-(5-METHYL-2-PHENYL-OX
   2 570 AZOL-4-YL)-ETHOXY]-PHENYL}-PROPIONIC ACID

>  <HETSYN>
     570 GI262570

>  <Name>
570.pdb

>  <RI>
0

>  <Rbt.Current_Directory>
/home/malgorzata/Desktop/rDOCK_IFD/Wyniki/14_ppar-gamma

>  <Rbt.Executable>
rbdock ($Id: //depot/dev/client3/rdock/2013.1/src/exe/rbdock.cxx#4 $)

>  <Rbt.Library>
libRbt.so (2013.1, Build901 2013/11/27)

>  <Rbt.Parameter_File>
/home/malgorzata/Desktop/rDock_2013.1_src/data/scripts/soft_docking.prm

>  <Rbt.Receptor>
cavity.prm

>  <SCORE>
-16.1046

>  <SCORE.INTER>
-22.4928

>  <SCORE.INTER.CONST>
1

>  <SCORE.INTER.POLAR>
-0.318322

>  <SCORE.INTER.REPUL>
0

>  <SCORE.INTER.ROT>
12

>  <SCORE.INTER.VDW>
-38.8105

>  <SCORE.INTER.norm>
-0.548605

>  <SCORE.INTRA>
6.242

>  <SCORE.INTRA.DIHEDRAL>
18.689

>  <SCORE.INTRA.DIHEDRAL.0>
12.9748

>  <SCORE.INTRA.POLAR>
0.058673

>  <SCORE.INTRA.POLAR.0>
-0.058673

>  <SCORE.INTRA.REPUL>
0

>  <SCORE.INTRA.REPUL.0>
0

>  <SCORE.INTRA.VDW>
2.30471

>  <SCORE.INTRA.VDW.0>
-4.98062

>  <SCORE.INTRA.norm>
0.152244

>  <SCORE.RESTR>
0.814557

>  <SCORE.RESTR.CAVITY>
0.814557

>  <SCORE.RESTR.norm>
0.0198672

>  <SCORE.SYSTEM>
-0.668365

>  <SCORE.SYSTEM.CONST>
0

>  <SCORE.SYSTEM.DIHEDRAL>
4.46792

>  <SCORE.SYSTEM.POLAR>
-0.173583

>  <SCORE.SYSTEM.REPUL>
0.0467333

>  <SCORE.SYSTEM.VDW>
-2.54581

>  <SCORE.SYSTEM.norm>
-0.0163016

>  <SCORE.heavy>
41

>  <SCORE.norm>
-0.392795

$$$$
570.pdb
  rDOCK(R)          3D
libRbt.so/2013.1/901 2013/11/27
 43 47  0  0  0  0  0  0  0  0999 V2000
   49.9963  -34.6577   16.8889 N   0  0  0  0  0  0
   49.7492  -35.0384   15.4484 C   0  0  0  0  0  0
   48.2365  -35.0312   15.0642 C   0  0  0  0  0  0
   47.6649  -36.4104   14.7167 C   0  0  0  0  0  0
   47.4103  -37.3331   15.7839 C   0  0  0  0  0  0
   47.3867  -36.7859   13.3610 C   0  0  0  0  0  0
   46.8853  -38.6109   15.5127 C   0  0  0  0  0  0
   46.8597  -38.0664   13.0779 C   0  0  0  0  0  0
   46.5977  -39.0124   14.1694 C   0  0  0  0  0  0
   46.0677  -40.3311   14.0331 O   0  0  0  0  0  0
   49.1682  -34.7008   18.0914 C   0  0  0  0  0  0
   49.7673  -34.9004   19.4158 C   0  0  0  0  0  0
   48.8700  -34.9270   20.5468 C   0  0  0  0  0  0
   47.4728  -34.7706   20.3893 C   0  0  0  0  0  0
   46.9160  -34.5814   19.1114 C   0  0  0  0  0  0
   47.7393  -34.5455   17.9841 C   0  0  0  0  0  0
   52.0052  -35.5640   21.0005 C   0  0  0  0  0  0
   51.2220  -35.8655   22.1781 C   0  0  0  0  0  0
   51.8541  -36.3170   23.3725 C   0  0  0  0  0  0
   53.2712  -36.4727   23.4055 C   0  0  0  0  0  0
   54.0506  -36.1770   22.2508 C   0  0  0  0  0  0
   53.4248  -35.7278   21.0618 C   0  0  0  0  0  0
   51.3108  -35.0861   19.7345 C   0  0  0  0  0  0
   52.1145  -34.7410   18.8440 O   0  0  0  0  0  0
   47.8127  -43.9689   17.4159 O   0  0  0  0  0  0
   46.4825  -44.2353   17.7201 C   0  0  0  0  0  0
   45.7515  -43.8074   16.5868 N   0  0  0  0  0  0
   46.6606  -43.3068   15.6797 C   0  0  0  0  0  0
   48.0081  -43.3880   16.1812 C   0  0  0  0  0  0
   49.3224  -42.9492   15.5230 C   0  0  0  0  0  0
   45.9492  -44.7960   18.8804 C   0  0  0  0  0  0
   45.1923  -46.0252   18.8695 C   0  0  0  0  0  0
   44.6681  -46.5490   20.0798 C   0  0  0  0  0  0
   44.8851  -45.8654   21.3045 C   0  0  0  0  0  0
   45.6297  -44.6548   21.3314 C   0  0  0  0  0  0
   46.1573  -44.1209   20.1292 C   0  0  0  0  0  0
   46.9549  -41.4646   13.8739 C   0  0  0  0  0  0
   46.1919  -42.7341   14.2981 C   0  0  0  0  0  0
   50.0240  -33.9229   13.3909 O   0  0  0  0  0  0
   51.7064  -33.7890   14.8460 O   0  0  0  0  0  0
   50.5392  -34.1721   14.5079 C   0  0  0  0  0  0
   50.9024  -34.3084   17.0508 H   0  0  0  0  0  0
   52.3521  -34.4198   15.0975 H   0  0  0  0  0  0
  1  2  1  0  0  0
  1 11  1  0  0  0
  1 42  1  0  0  0
  2  3  1  0  0  0
  2 41  1  0  0  0
  3  4  1  0  0  0
  4  5  2  0  0  0
  4  6  1  0  0  0
  5  7  1  0  0  0
  6  8  2  0  0  0
  7  9  2  0  0  0
  8  9  1  0  0  0
  9 10  1  0  0  0
 10 37  1  0  0  0
 11 12  2  0  0  0
 11 16  1  0  0  0
 12 13  1  0  0  0
 12 23  1  0  0  0
 13 14  2  0  0  0
 14 15  1  0  0  0
 15 16  2  0  0  0
 17 18  2  0  0  0
 17 22  1  0  0  0
 17 23  1  0  0  0
 18 19  1  0  0  0
 19 20  2  0  0  0
 20 21  1  0  0  0
 21 22  2  0  0  0
 23 24  2  0  0  0
 25 26  1  0  0  0
 25 29  1  0  0  0
 26 27  2  0  0  0
 26 31  1  0  0  0
 27 28  1  0  0  0
 28 29  2  0  0  0
 28 38  1  0  0  0
 29 30  1  0  0  0
 31 32  2  0  0  0
 31 36  1  0  0  0
 32 33  1  0  0  0
 33 34  2  0  0  0
 34 35  1  0  0  0
 35 36  2  0  0  0
 37 38  1  0  0  0
 39 41  2  0  0  0
 40 41  1  0  0  0
 40 43  1  0  0  0
M  END
>  <CHROM.0>
89.25591411,-83.98259757,174.26832804,151.34435397

>  <CHROM.1>
23.34401357,149.93276953,-114.10041134,-147.57706353,74.72383166,-88.93124137
158.20936645,-166.40408236,-3.21711213,-119.84979342,140.02913135,-106.58710340
54.55895225,48.51955180,-38.63994300,17.62701952,0.51037196,-1.03542009,-0.91087646

>  <FORMUL>
      570    C34 H30 N2 O5

>  <HET>
 570  D 200      41

>  <HETNAM>
     570 2-(2-BENZOYL-PHENYLAMINO)-3-{4-[2-(5-METHYL-2-PHENYL-OX
   2 570 AZOL-4-YL)-ETHOXY]-PHENYL}-PROPIONIC ACID

>  <HETSYN>
     570 GI262570

>  <Name>
570.pdb

>  <RI>
0

>  <Rbt.Current_Directory>
/home/malgorzata/Desktop/rDOCK_IFD/Wyniki/14_ppar-gamma

>  <Rbt.Executable>
rbdock ($Id: //depot/dev/client3/rdock/2013.1/src/exe/rbdock.cxx#4 $)

>  <Rbt.Library>
libRbt.so (2013.1, Build901 2013/11/27)

>  <Rbt.Parameter_File>
/home/malgorzata/Desktop/rDock_2013.1_src/data/scripts/soft_docking.prm

>  <Rbt.Receptor>
cavity.prm

>  <SCORE>
-17.9795

>  <SCORE.INTER>
-28.1446

>  <SCORE.INTER.CONST>
1

>  <SCORE.INTER.POLAR>
-0.315725

>  <SCORE.INTER.REPUL>
0

>  <SCORE.INTER.ROT>
12

>  <SCORE.INTER.VDW>
-44.4711

>  <SCORE.INTER.norm>
-0.686453

>  <SCORE.INTRA>
10.4555

>  <SCORE.INTRA.DIHEDRAL>
40.1847

>  <SCORE.INTRA.DIHEDRAL.0>
12.9748

>  <SCORE.INTRA.POLAR>
0.0169017

>  <SCORE.INTRA.POLAR.0>
-0.058673

>  <SCORE.INTRA.REPUL>
0

>  <SCORE.INTRA.REPUL.0>
0

>  <SCORE.INTRA.VDW>
2.36112

>  <SCORE.INTRA.VDW.0>
-4.98062

>  <SCORE.INTRA.norm>
0.255013

>  <SCORE.RESTR>
0.0960666

>  <SCORE.RESTR.CAVITY>
0.0960666

>  <SCORE.RESTR.norm>
0.00234309

>  <SCORE.SYSTEM>
-0.386506

>  <SCORE.SYSTEM.CONST>
0

>  <SCORE.SYSTEM.DIHEDRAL>
7.08289

>  <SCORE.SYSTEM.POLAR>
-0.372218

>  <SCORE.SYSTEM.REPUL>
0.0467333

>  <SCORE.SYSTEM.VDW>
-2.89607

>  <SCORE.SYSTEM.norm>
-0.00942697

>  <SCORE.heavy>
41

>  <SCORE.norm>
-0.438524

$$$$
570.pdb
  rDOCK(R)          3D
libRbt.so/2013.1/901 2013/11/27
 43 47  0  0  0  0  0  0  0  0999 V2000
   46.7230  -40.8068   16.4987 N   0  0  0  0  0  0
   46.0620  -40.2874   15.2441 C   0  0  0  0  0  0
   45.6102  -38.7981   15.3619 C   0  0  0  0  0  0
   46.5377  -37.9203   16.2096 C   0  0  0  0  0  0
   47.9445  -37.9489   15.9354 C   0  0  0  0  0  0
   46.0272  -37.0849   17.2575 C   0  0  0  0  0  0
   48.8347  -37.1592   16.6878 C   0  0  0  0  0  0
   46.9123  -36.2884   18.0189 C   0  0  0  0  0  0
   48.3531  -36.3159   17.7391 C   0  0  0  0  0  0
   49.3589  -35.5670   18.4218 O   0  0  0  0  0  0
   46.3450  -41.8164   17.4843 C   0  0  0  0  0  0
   47.3616  -42.6214   18.1708 C   0  0  0  0  0  0
   46.8935  -43.5936   19.1306 C   0  0  0  0  0  0
   45.5154  -43.7676   19.3985 C   0  0  0  0  0  0
   44.5548  -42.9875   18.7296 C   0  0  0  0  0  0
   44.9537  -42.0313   17.7934 C   0  0  0  0  0  0
   49.8763  -43.4070   17.1615 C   0  0  0  0  0  0
   49.3422  -44.2995   16.1568 C   0  0  0  0  0  0
   50.2102  -45.1281   15.3887 C   0  0  0  0  0  0
   51.6174  -45.0757   15.6134 C   0  0  0  0  0  0
   52.1522  -44.2006   16.6016 C   0  0  0  0  0  0
   51.2915  -43.3756   17.3669 C   0  0  0  0  0  0
   48.9329  -42.5286   17.9687 C   0  0  0  0  0  0
   49.5300  -41.6359   18.6048 O   0  0  0  0  0  0
   53.9580  -34.6833   18.7752 O   0  0  0  0  0  0
   53.8042  -34.9029   20.1394 C   0  0  0  0  0  0
   52.4774  -34.5071   20.4302 N   0  0  0  0  0  0
   51.9141  -34.0695   19.2507 C   0  0  0  0  0  0
   52.8432  -34.1621   18.1542 C   0  0  0  0  0  0
   52.6529  -33.7854   16.6794 C   0  0  0  0  0  0
   54.7344  -35.3988   21.0526 C   0  0  0  0  0  0
   54.3588  -35.8583   22.3685 C   0  0  0  0  0  0
   55.3478  -36.3493   23.2601 C   0  0  0  0  0  0
   56.7094  -36.3888   22.8615 C   0  0  0  0  0  0
   57.0944  -35.9412   21.5684 C   0  0  0  0  0  0
   56.1163  -35.4476   20.6693 C   0  0  0  0  0  0
   49.6001  -34.1810   18.0785 C   0  0  0  0  0  0
   50.4374  -33.5464   19.2056 C   0  0  0  0  0  0
   46.5700  -39.9409   12.9692 O   0  0  0  0  0  0
   47.9683  -41.2280   14.1325 O   0  0  0  0  0  0
   46.9401  -40.4814   14.0397 C   0  0  0  0  0  0
   47.5870  -40.3762   16.6921 H   0  0  0  0  0  0
   48.0725  -41.9563   13.5522 H   0  0  0  0  0  0
  1  2  1  0  0  0
  1 11  1  0  0  0
  1 42  1  0  0  0
  2  3  1  0  0  0
  2 41  1  0  0  0
  3  4  1  0  0  0
  4  5  2  0  0  0
  4  6  1  0  0  0
  5  7  1  0  0  0
  6  8  2  0  0  0
  7  9  2  0  0  0
  8  9  1  0  0  0
  9 10  1  0  0  0
 10 37  1  0  0  0
 11 12  2  0  0  0
 11 16  1  0  0  0
 12 13  1  0  0  0
 12 23  1  0  0  0
 13 14  2  0  0  0
 14 15  1  0  0  0
 15 16  2  0  0  0
 17 18  2  0  0  0
 17 22  1  0  0  0
 17 23  1  0  0  0
 18 19  1  0  0  0
 19 20  2  0  0  0
 20 21  1  0  0  0
 21 22  2  0  0  0
 23 24  2  0  0  0
 25 26  1  0  0  0
 25 29  1  0  0  0
 26 27  2  0  0  0
 26 31  1  0  0  0
 27 28  1  0  0  0
 28 29  2  0  0  0
 28 38  1  0  0  0
 29 30  1  0  0  0
 31 32  2  0  0  0
 31 36  1  0  0  0
 32 33  1  0  0  0
 33 34  2  0  0  0
 34 35  1  0  0  0
 35 36  2  0  0  0
 37 38  1  0  0  0
 39 41  2  0  0  0
 40 41  1  0  0  0
 40 43  1  0  0  0
M  END
>  <CHROM.0>
43.01797519,145.80609329,-131.27602481,-122.11945872

>  <CHROM.1>
113.29574011,147.67359116,34.62770842,-171.40124894,50.02336460,98.80758684
164.81993260,-100.65005886,16.29879520,-165.64698707,-130.71062315,70.42155560
123.50805184,49.85063313,-38.88095276,17.91232378,2.36156327,0.48339417,-3.08451386

>  <FORMUL>
      570    C34 H30 N2 O5

>  <HET>
 570  D 200      41

>  <HETNAM>
     570 2-(2-BENZOYL-PHENYLAMINO)-3-{4-[2-(5-METHYL-2-PHENYL-OX
   2 570 AZOL-4-YL)-ETHOXY]-PHENYL}-PROPIONIC ACID

>  <HETSYN>
     570 GI262570

>  <Name>
570.pdb

>  <RI>
0

>  <Rbt.Current_Directory>
/home/malgorzata/Desktop/rDOCK_IFD/Wyniki/14_ppar-gamma

>  <Rbt.Executable>
rbdock ($Id: //depot/dev/client3/rdock/2013.1/src/exe/rbdock.cxx#4 $)

>  <Rbt.Library>
libRbt.so (2013.1, Build901 2013/11/27)

>  <Rbt.Parameter_File>
/home/malgorzata/Desktop/rDock_2013.1_src/data/scripts/soft_docking.prm

>  <Rbt.Receptor>
cavity.prm

>  <SCORE>
-9.40325

>  <SCORE.INTER>
-20.3364

>  <SCORE.INTER.CONST>
1

>  <SCORE.INTER.POLAR>
-0.41497

>  <SCORE.INTER.REPUL>
0

>  <SCORE.INTER.ROT>
12

>  <SCORE.INTER.VDW>
-36.3255

>  <SCORE.INTER.norm>
-0.49601

>  <SCORE.INTRA>
7.56708

>  <SCORE.INTRA.DIHEDRAL>
36.1618

>  <SCORE.INTRA.DIHEDRAL.0>
12.9748

>  <SCORE.INTRA.POLAR>
0.058673

>  <SCORE.INTRA.POLAR.0>
-0.058673

>  <SCORE.INTRA.REPUL>
0

>  <SCORE.INTRA.REPUL.0>
0

>  <SCORE.INTRA.VDW>
0.13523

>  <SCORE.INTRA.VDW.0>
-4.98062

>  <SCORE.INTRA.norm>
0.184563

>  <SCORE.RESTR>
0.81269

>  <SCORE.RESTR.CAVITY>
0.81269

>  <SCORE.RESTR.norm>
0.0198217

>  <SCORE.SYSTEM>
2.55338

>  <SCORE.SYSTEM.CONST>
0

>  <SCORE.SYSTEM.DIHEDRAL>
11.8568

>  <SCORE.SYSTEM.POLAR>
-0.302157

>  <SCORE.SYSTEM.REPUL>
0.0467333

>  <SCORE.SYSTEM.VDW>
-2.58137

>  <SCORE.SYSTEM.norm>
0.0622776

>  <SCORE.heavy>
41

>  <SCORE.norm>
-0.229347

$$$$
570.pdb
  rDOCK(R)          3D
libRbt.so/2013.1/901 2013/11/27
 43 47  0  0  0  0  0  0  0  0999 V2000
   45.4247  -44.5226   17.3018 N   0  0  0  0  0  0
   45.1684  -43.0518   17.5290 C   0  0  0  0  0  0
   45.6343  -42.5593   18.9349 C   0  0  0  0  0  0
   45.9804  -41.0675   19.0006 C   0  0  0  0  0  0
   44.9253  -40.1130   18.8250 C   0  0  0  0  0  0
   47.3231  -40.6196   19.2301 C   0  0  0  0  0  0
   45.1956  -38.7324   18.8777 C   0  0  0  0  0  0
   47.6053  -39.2357   19.2847 C   0  0  0  0  0  0
   46.5262  -38.2568   19.1058 C   0  0  0  0  0  0
   46.6629  -36.8360   19.1380 O   0  0  0  0  0  0
   46.1842  -45.5311   18.0364 C   0  0  0  0  0  0
   47.2688  -46.2799   17.3915 C   0  0  0  0  0  0
   47.9649  -47.2553   18.1972 C   0  0  0  0  0  0
   47.6178  -47.4844   19.5494 C   0  0  0  0  0  0
   46.5741  -46.7578   20.1507 C   0  0  0  0  0  0
   45.8700  -45.8010   19.4169 C   0  0  0  0  0  0
   48.6564  -45.0714   15.2527 C   0  0  0  0  0  0
   49.4600  -45.4172   14.1013 C   0  0  0  0  0  0
   50.3026  -44.4457   13.4878 C   0  0  0  0  0  0
   50.3527  -43.1215   14.0147 C   0  0  0  0  0  0
   49.5655  -42.7724   15.1490 C   0  0  0  0  0  0
   48.7269  -43.7364   15.7611 C   0  0  0  0  0  0
   47.7613  -46.1225   15.8911 C   0  0  0  0  0  0
   47.3166  -46.9447   15.0640 O   0  0  0  0  0  0
   48.7685  -35.0972   14.2002 O   0  0  0  0  0  0
   47.7234  -35.9976   14.0266 C   0  0  0  0  0  0
   47.0813  -36.0655   15.2855 N   0  0  0  0  0  0
   47.7648  -35.2256   16.1384 C   0  0  0  0  0  0
   48.8696  -34.5826   15.4750 C   0  0  0  0  0  0
   49.8939  -33.5846   16.0299 C   0  0  0  0  0  0
   47.3615  -36.7018   12.8786 C   0  0  0  0  0  0
   46.5453  -37.8917   12.9249 C   0  0  0  0  0  0
   46.2106  -38.5723   11.7254 C   0  0  0  0  0  0
   46.6782  -38.0862   10.4767 C   0  0  0  0  0  0
   47.4815  -36.9151   10.4149 C   0  0  0  0  0  0
   47.8236  -36.2272   11.6058 C   0  0  0  0  0  0
   47.8197  -36.1975   18.5454 C   0  0  0  0  0  0
   47.3243  -35.0589   17.6332 C   0  0  0  0  0  0
   45.8717  -40.9792   16.6553 O   0  0  0  0  0  0
   46.1180  -42.7645   15.3449 O   0  0  0  0  0  0
   45.7823  -42.2129   16.4432 C   0  0  0  0  0  0
   44.9902  -44.8743   16.4913 H   0  0  0  0  0  0
   45.9223  -43.6687   15.1956 H   0  0  0  0  0  0
  1  2  1  0  0  0
  1 11  1  0  0  0
  1 42  1  0  0  0
  2  3  1  0  0  0
  2 41  1  0  0  0
  3  4  1  0  0  0
  4  5  2  0  0  0
  4  6  1  0  0  0
  5  7  1  0  0  0
  6  8  2  0  0  0
  7  9  2  0  0  0
  8  9  1  0  0  0
  9 10  1  0  0  0
 10 37  1  0  0  0
 11 12  2  0  0  0
 11 16  1  0  0  0
 12 13  1  0  0  0
 12 23  1  0  0  0
 13 14  2  0  0  0
 14 15  1  0  0  0
 15 16  2  0  0  0
 17 18  2  0  0  0
 17 22  1  0  0  0
 17 23  1  0  0  0
 18 19  1  0  0  0
 19 20  2  0  0  0
 20 21  1  0  0  0
 21 22  2  0  0  0
 23 24  2  0  0  0
 25 26  1  0  0  0
 25 29  1  0  0  0
 26 27  2  0  0  0
 26 31  1  0  0  0
 27 28  1  0  0  0
 28 29  2  0  0  0
 28 38  1  0  0  0
 29 30  1  0  0  0
 31 32  2  0  0  0
 31 36  1  0  0  0
 32 33  1  0  0  0
 33 34  2  0  0  0
 34 35  1  0  0  0
 35 36  2  0  0  0
 37 38  1  0  0  0
 39 41  2  0  0  0
 40 41  1  0  0  0
 40 43  1  0  0  0
M  END
>  <CHROM.0>
-27.77587892,-56.87157989,-21.13910336,-163.91011636

>  <CHROM.1>
-10.47385326,-122.49579166,154.16381322,-166.07720300,66.69430694,-141.28403314
130.63271765,78.87188447,151.30553456,160.09567159,80.59849486,-120.63604466
4.66036482,47.28536299,-40.79035971,16.21152268,1.76133845,-1.30232694,3.06345907

>  <FORMUL>
      570    C34 H30 N2 O5

>  <HET>
 570  D 200      41

>  <HETNAM>
     570 2-(2-BENZOYL-PHENYLAMINO)-3-{4-[2-(5-METHYL-2-PHENYL-OX
   2 570 AZOL-4-YL)-ETHOXY]-PHENYL}-PROPIONIC ACID

>  <HETSYN>
     570 GI262570

>  <Name>
570.pdb

>  <RI>
0

>  <Rbt.Current_Directory>
/home/malgorzata/Desktop/rDOCK_IFD/Wyniki/14_ppar-gamma

>  <Rbt.Executable>
rbdock ($Id: //depot/dev/client3/rdock/2013.1/src/exe/rbdock.cxx#4 $)

>  <Rbt.Library>
libRbt.so (2013.1, Build901 2013/11/27)

>  <Rbt.Parameter_File>
/home/malgorzata/Desktop/rDock_2013.1_src/data/scripts/soft_docking.prm

>  <Rbt.Receptor>
cavity.prm

>  <SCORE>
-5.43512

>  <SCORE.INTER>
-19.1183

>  <SCORE.INTER.CONST>
1

>  <SCORE.INTER.POLAR>
-1.1114

>  <SCORE.INTER.REPUL>
0

>  <SCORE.INTER.ROT>
12

>  <SCORE.INTER.VDW>
-32.7395

>  <SCORE.INTER.norm>
-0.4663

>  <SCORE.INTRA>
12.874

>  <SCORE.INTRA.DIHEDRAL>
35.5592

>  <SCORE.INTRA.DIHEDRAL.0>
12.9748

>  <SCORE.INTRA.POLAR>
0.058673

>  <SCORE.INTRA.POLAR.0>
-0.058673

>  <SCORE.INTRA.REPUL>
0

>  <SCORE.INTRA.REPUL.0>
0

>  <SCORE.INTRA.VDW>
5.56264

>  <SCORE.INTRA.VDW.0>
-4.98062

>  <SCORE.INTRA.norm>
0.313999

>  <SCORE.RESTR>
0.452469

>  <SCORE.RESTR.CAVITY>
0.452469

>  <SCORE.RESTR.norm>
0.0110358

>  <SCORE.SYSTEM>
0.356756

>  <SCORE.SYSTEM.CONST>
0

>  <SCORE.SYSTEM.DIHEDRAL>
5.0972

>  <SCORE.SYSTEM.POLAR>
-0.0651158

>  <SCORE.SYSTEM.REPUL>
0.0467333

>  <SCORE.SYSTEM.VDW>
-2.20412

>  <SCORE.SYSTEM.norm>
0.00870136

>  <SCORE.heavy>
41

>  <SCORE.norm>
-0.132564

$$$$
570.pdb
  rDOCK(R)          3D
libRbt.so/2013.1/901 2013/11/27
 43 47  0  0  0  0  0  0  0  0999 V2000
   53.1119  -35.3448   19.9682 N   0  0  0  0  0  0
   52.3723  -34.0715   19.6329 C   0  0  0  0  0  0
   50.9027  -34.0608   20.1581 C   0  0  0  0  0  0
   49.9079  -34.8182   19.2714 C   0  0  0  0  0  0
   50.2109  -34.9677   17.8782 C   0  0  0  0  0  0
   48.6969  -35.3696   19.8061 C   0  0  0  0  0  0
   49.3271  -35.6559   17.0253 C   0  0  0  0  0  0
   47.8028  -36.0621   18.9584 C   0  0  0  0  0  0
   48.1116  -36.2169   17.5317 C   0  0  0  0  0  0
   47.3070  -36.8898   16.5631 O   0  0  0  0  0  0
   54.5270  -35.6652   20.1369 C   0  0  0  0  0  0
   55.0591  -36.0780   21.4404 C   0  0  0  0  0  0
   56.4702  -36.3765   21.5107 C   0  0  0  0  0  0
   57.3077  -36.2741   20.3752 C   0  0  0  0  0  0
   56.7801  -35.8754   19.1337 C   0  0  0  0  0  0
   55.4215  -35.5772   19.0102 C   0  0  0  0  0  0
   52.8912  -36.8967   23.0499 C   0  0  0  0  0  0
   52.8403  -38.1828   23.7089 C   0  0  0  0  0  0
   51.5901  -38.8163   23.9654 C   0  0  0  0  0  0
   50.3796  -38.1754   23.5685 C   0  0  0  0  0  0
   50.4204  -36.9091   22.9179 C   0  0  0  0  0  0
   51.6621  -36.2769   22.6616 C   0  0  0  0  0  0
   54.2359  -36.2359   22.7880 C   0  0  0  0  0  0
   54.7137  -35.6937   23.8057 O   0  0  0  0  0  0
   47.0552  -41.8791   15.0183 O   0  0  0  0  0  0
   46.4421  -42.1269   16.2413 C   0  0  0  0  0  0
   45.8690  -40.8915   16.6244 N   0  0  0  0  0  0
   46.1682  -39.9785   15.6360 C   0  0  0  0  0  0
   46.9412  -40.5776   14.5788 C   0  0  0  0  0  0
   47.4951  -39.9447   13.2958 C   0  0  0  0  0  0
   46.3884  -43.3188   16.9636 C   0  0  0  0  0  0
   45.3270  -44.2819   16.7910 C   0  0  0  0  0  0
   45.3191  -45.4771   17.5561 C   0  0  0  0  0  0
   46.3539  -45.7288   18.4943 C   0  0  0  0  0  0
   47.4066  -44.7907   18.6743 C   0  0  0  0  0  0
   47.4250  -43.5927   17.9171 C   0  0  0  0  0  0
   46.2285  -37.7600   16.9833 C   0  0  0  0  0  0
   45.6885  -38.4900   15.7386 C   0  0  0  0  0  0
   53.4204  -31.9938   19.2608 O   0  0  0  0  0  0
   53.4661  -32.7909   21.3412 O   0  0  0  0  0  0
   53.1175  -32.8594   20.1177 C   0  0  0  0  0  0
   52.5177  -36.1186   20.1003 H   0  0  0  0  0  0
   53.5644  -33.5749   21.8450 H   0  0  0  0  0  0
  1  2  1  0  0  0
  1 11  1  0  0  0
  1 42  1  0  0  0
  2  3  1  0  0  0
  2 41  1  0  0  0
  3  4  1  0  0  0
  4  5  2  0  0  0
  4  6  1  0  0  0
  5  7  1  0  0  0
  6  8  2  0  0  0
  7  9  2  0  0  0
  8  9  1  0  0  0
  9 10  1  0  0  0
 10 37  1  0  0  0
 11 12  2  0  0  0
 11 16  1  0  0  0
 12 13  1  0  0  0
 12 23  1  0  0  0
 13 14  2  0  0  0
 14 15  1  0  0  0
 15 16  2  0  0  0
 17 18  2  0  0  0
 17 22  1  0  0  0
 17 23  1  0  0  0
 18 19  1  0  0  0
 19 20  2  0  0  0
 20 21  1  0  0  0
 21 22  2  0  0  0
 23 24  2  0  0  0
 25 26  1  0  0  0
 25 29  1  0  0  0
 26 27  2  0  0  0
 26 31  1  0  0  0
 27 28  1  0  0  0
 28 29  2  0  0  0
 28 38  1  0  0  0
 29 30  1  0  0  0
 31 32  2  0  0  0
 31 36  1  0  0  0
 32 33  1  0  0  0
 33 34  2  0  0  0
 34 35  1  0  0  0
 35 36  2  0  0  0
 37 38  1  0  0  0
 39 41  2  0  0  0
 40 41  1  0  0  0
 40 43  1  0  0  0
M  END
>  <CHROM.0>
-91.80360510,-171.96953012,-43.29261915,-137.82395732

>  <CHROM.1>
-154.77014466,114.50297622,-80.91033185,122.75751625,-25.33419385,165.48322158
-171.86005779,45.34737209,105.10276483,-90.24097629,60.00189283,103.28770651
23.36008319,50.30207227,-37.81675048,19.15285744,0.38407525,-0.76435972,-0.45500705

>  <FORMUL>
      570    C34 H30 N2 O5

>  <HET>
 570  D 200      41

>  <HETNAM>
     570 2-(2-BENZOYL-PHENYLAMINO)-3-{4-[2-(5-METHYL-2-PHENYL-OX
   2 570 AZOL-4-YL)-ETHOXY]-PHENYL}-PROPIONIC ACID

>  <HETSYN>
     570 GI262570

>  <Name>
570.pdb

>  <RI>
0

>  <Rbt.Current_Directory>
/home/malgorzata/Desktop/rDOCK_IFD/Wyniki/14_ppar-gamma

>  <Rbt.Executable>
rbdock ($Id: //depot/dev/client3/rdock/2013.1/src/exe/rbdock.cxx#4 $)

>  <Rbt.Library>
libRbt.so (2013.1, Build901 2013/11/27)

>  <Rbt.Parameter_File>
/home/malgorzata/Desktop/rDock_2013.1_src/data/scripts/soft_docking.prm

>  <Rbt.Receptor>
cavity.prm

>  <SCORE>
-18.9282

>  <SCORE.INTER>
-28.8226

>  <SCORE.INTER.CONST>
1

>  <SCORE.INTER.POLAR>
-0.17586

>  <SCORE.INTER.REPUL>
0.178585

>  <SCORE.INTER.ROT>
12

>  <SCORE.INTER.VDW>
-46.5176

>  <SCORE.INTER.norm>
-0.702991

>  <SCORE.INTRA>
7.87955

>  <SCORE.INTRA.DIHEDRAL>
44.2444

>  <SCORE.INTRA.DIHEDRAL.0>
12.9748

>  <SCORE.INTRA.POLAR>
0.058673

>  <SCORE.INTRA.POLAR.0>
-0.058673

>  <SCORE.INTRA.REPUL>
0

>  <SCORE.INTRA.REPUL.0>
0

>  <SCORE.INTRA.VDW>
-1.16882

>  <SCORE.INTRA.VDW.0>
-4.98062

>  <SCORE.INTRA.norm>
0.192184

>  <SCORE.RESTR>
0.305186

>  <SCORE.RESTR.CAVITY>
0.305186

>  <SCORE.RESTR.norm>
0.00744356

>  <SCORE.SYSTEM>
1.70964

>  <SCORE.SYSTEM.CONST>
0

>  <SCORE.SYSTEM.DIHEDRAL>
8.73414

>  <SCORE.SYSTEM.POLAR>
-0.180471

>  <SCORE.SYSTEM.REPUL>
0.0467333

>  <SCORE.SYSTEM.VDW>
-2.27749

>  <SCORE.SYSTEM.norm>
0.0416985

>  <SCORE.heavy>
41

>  <SCORE.norm>
-0.461664

$$$$
570.pdb
  rDOCK(R)          3D
libRbt.so/2013.1/901 2013/11/27
 43 47  0  0  0  0  0  0  0  0999 V2000
   50.4587  -34.0018   16.8012 N   0  0  0  0  0  0
   50.8844  -34.5916   15.4777 C   0  0  0  0  0  0
   49.6890  -35.1489   14.6431 C   0  0  0  0  0  0
   48.7400  -36.0616   15.4279 C   0  0  0  0  0  0
   49.1684  -36.5586   16.7025 C   0  0  0  0  0  0
   47.4506  -36.4211   14.9135 C   0  0  0  0  0  0
   48.3304  -37.3995   17.4591 C   0  0  0  0  0  0
   46.6016  -37.2649   15.6650 C   0  0  0  0  0  0
   47.0383  -37.7743   16.9707 C   0  0  0  0  0  0
   46.2896  -38.6285   17.8357 O   0  0  0  0  0  0
   49.4348  -33.0320   17.1814 C   0  0  0  0  0  0
   48.9694  -32.9278   18.5690 C   0  0  0  0  0  0
   47.9559  -31.9385   18.8508 C   0  0  0  0  0  0
   47.4296  -31.1056   17.8356 C   0  0  0  0  0  0
   47.8871  -31.2206   16.5104 C   0  0  0  0  0  0
   48.8677  -32.1596   16.1841 C   0  0  0  0  0  0
   49.1104  -33.7132   21.2752 C   0  0  0  0  0  0
   49.9308  -34.3921   22.2534 C   0  0  0  0  0  0
   49.6088  -34.3266   23.6398 C   0  0  0  0  0  0
   48.4677  -33.5846   24.0649 C   0  0  0  0  0  0
   47.6533  -32.9137   23.1084 C   0  0  0  0  0  0
   47.9711  -32.9772   21.7292 C   0  0  0  0  0  0
   49.4730  -33.7932   19.8002 C   0  0  0  0  0  0
   50.3498  -34.6498   19.5645 O   0  0  0  0  0  0
   45.9285  -42.3720   21.2155 O   0  0  0  0  0  0
   45.8665  -42.7242   19.8720 C   0  0  0  0  0  0
   45.4809  -41.5419   19.1974 N   0  0  0  0  0  0
   45.3249  -40.5597   20.1519 C   0  0  0  0  0  0
   45.6003  -41.0586   21.4745 C   0  0  0  0  0  0
   45.5480  -40.3292   22.8231 C   0  0  0  0  0  0
   46.1177  -43.9634   19.2834 C   0  0  0  0  0  0
   45.6168  -44.3157   17.9761 C   0  0  0  0  0  0
   45.8988  -45.5933   17.4265 C   0  0  0  0  0  0
   46.6729  -46.5292   18.1606 C   0  0  0  0  0  0
   47.1743  -46.1963   19.4484 C   0  0  0  0  0  0
   46.8985  -44.9241   20.0088 C   0  0  0  0  0  0
   46.0538  -38.2511   19.2137 C   0  0  0  0  0  0
   44.8919  -39.1071   19.7534 C   0  0  0  0  0  0
   52.9328  -33.6931   14.7359 O   0  0  0  0  0  0
   51.0730  -32.6998   14.0148 O   0  0  0  0  0  0
   51.6824  -33.6075   14.6690 C   0  0  0  0  0  0
   50.9785  -34.3411   17.5654 H   0  0  0  0  0  0
   50.8545  -32.8379   13.1141 H   0  0  0  0  0  0
  1  2  1  0  0  0
  1 11  1  0  0  0
  1 42  1  0  0  0
  2  3  1  0  0  0
  2 41  1  0  0  0
  3  4  1  0  0  0
  4  5  2  0  0  0
  4  6  1  0  0  0
  5  7  1  0  0  0
  6  8  2  0  0  0
  7  9  2  0  0  0
  8  9  1  0  0  0
  9 10  1  0  0  0
 10 37  1  0  0  0
 11 12  2  0  0  0
 11 16  1  0  0  0
 12 13  1  0  0  0
 12 23  1  0  0  0
 13 14  2  0  0  0
 14 15  1  0  0  0
 15 16  2  0  0  0
 17 18  2  0  0  0
 17 22  1  0  0  0
 17 23  1  0  0  0
 18 19  1  0  0  0
 19 20  2  0  0  0
 20 21  1  0  0  0
 21 22  2  0  0  0
 23 24  2  0  0  0
 25 26  1  0  0  0
 25 29  1  0  0  0
 26 27  2  0  0  0
 26 31  1  0  0  0
 27 28  1  0  0  0
 28 29  2  0  0  0
 28 38  1  0  0  0
 29 30  1  0  0  0
 31 32  2  0  0  0
 31 36  1  0  0  0
 32 33  1  0  0  0
 33 34  2  0  0  0
 34 35  1  0  0  0
 35 36  2  0  0  0
 37 38  1  0  0  0
 39 41  2  0  0  0
 40 41  1  0  0  0
 40 43  1  0  0  0
M  END
>  <CHROM.0>
154.09208684,-53.18564561,-142.08634418,143.79053198

>  <CHROM.1>
-50.17394144,161.71830823,-48.72041193,96.52602920,-13.84995648,53.92122951
162.68192938,176.39451946,-165.23609504,159.50731884,-80.04993126,78.91998703
-93.97937461,47.99724494,-37.15300604,18.54953079,-0.52538259,-1.18779541
-2.31156078

>  <FORMUL>
      570    C34 H30 N2 O5

>  <HET>
 570  D 200      41

>  <HETNAM>
     570 2-(2-BENZOYL-PHENYLAMINO)-3-{4-[2-(5-METHYL-2-PHENYL-OX
   2 570 AZOL-4-YL)-ETHOXY]-PHENYL}-PROPIONIC ACID

>  <HETSYN>
     570 GI262570

>  <Name>
570.pdb

>  <RI>
0

>  <Rbt.Current_Directory>
/home/malgorzata/Desktop/rDOCK_IFD/Wyniki/14_ppar-gamma

>  <Rbt.Executable>
rbdock ($Id: //depot/dev/client3/rdock/2013.1/src/exe/rbdock.cxx#4 $)

>  <Rbt.Library>
libRbt.so (2013.1, Build901 2013/11/27)

>  <Rbt.Parameter_File>
/home/malgorzata/Desktop/rDock_2013.1_src/data/scripts/soft_docking.prm

>  <Rbt.Receptor>
cavity.prm

>  <SCORE>
-13.6186

>  <SCORE.INTER>
-21.4375

>  <SCORE.INTER.CONST>
1

>  <SCORE.INTER.POLAR>
-0.386739

>  <SCORE.INTER.REPUL>
0

>  <SCORE.INTER.ROT>
12

>  <SCORE.INTER.VDW>
-37.5226

>  <SCORE.INTER.norm>
-0.522865

>  <SCORE.INTRA>
6.06477

>  <SCORE.INTRA.DIHEDRAL>
24.7779

>  <SCORE.INTRA.DIHEDRAL.0>
12.9748

>  <SCORE.INTRA.POLAR>
-0.011161

>  <SCORE.INTRA.POLAR.0>
-0.058673

>  <SCORE.INTRA.REPUL>
0

>  <SCORE.INTRA.REPUL.0>
0

>  <SCORE.INTRA.VDW>
1.14714

>  <SCORE.INTRA.VDW.0>
-4.98062

>  <SCORE.INTRA.norm>
0.147921

>  <SCORE.RESTR>
2.3316

>  <SCORE.RESTR.CAVITY>
2.3316

>  <SCORE.RESTR.norm>
0.0568682

>  <SCORE.SYSTEM>
-0.577466

>  <SCORE.SYSTEM.CONST>
0

>  <SCORE.SYSTEM.DIHEDRAL>
6.49079

>  <SCORE.SYSTEM.POLAR>
-0.4575

>  <SCORE.SYSTEM.REPUL>
0.0467333

>  <SCORE.SYSTEM.VDW>
-2.50103

>  <SCORE.SYSTEM.norm>
-0.0140845

>  <SCORE.heavy>
41

>  <SCORE.norm>
-0.332161

$$$$
570.pdb
  rDOCK(R)          3D
libRbt.so/2013.1/901 2013/11/27
 43 47  0  0  0  0  0  0  0  0999 V2000
   51.8742  -33.9519   21.8256 N   0  0  0  0  0  0
   50.9673  -33.0519   22.6308 C   0  0  0  0  0  0
   49.9777  -32.2307   21.7463 C   0  0  0  0  0  0
   48.8540  -33.0607   21.1156 C   0  0  0  0  0  0
   49.2059  -34.0856   20.1771 C   0  0  0  0  0  0
   47.4773  -32.8299   21.4443 C   0  0  0  0  0  0
   48.2078  -34.8734   19.5728 C   0  0  0  0  0  0
   46.4675  -33.6151   20.8431 C   0  0  0  0  0  0
   46.8259  -34.6655   19.8824 C   0  0  0  0  0  0
   45.9173  -35.5322   19.2028 O   0  0  0  0  0  0
   52.5428  -35.2175   22.1167 C   0  0  0  0  0  0
   53.8742  -35.5119   21.5749 C   0  0  0  0  0  0
   54.4570  -36.7878   21.9181 C   0  0  0  0  0  0
   53.7764  -37.7178   22.7386 C   0  0  0  0  0  0
   52.4998  -37.4187   23.2481 C   0  0  0  0  0  0
   51.8916  -36.1979   22.9486 C   0  0  0  0  0  0
   54.4108  -33.2197   20.0201 C   0  0  0  0  0  0
   55.0151  -32.0134   20.5405 C   0  0  0  0  0  0
   54.7153  -30.7457   19.9632 C   0  0  0  0  0  0
   53.8117  -30.6674   18.8628 C   0  0  0  0  0  0
   53.2110  -31.8501   18.3445 C   0  0  0  0  0  0
   53.5073  -33.1119   18.9166 C   0  0  0  0  0  0
   54.7464  -34.5634   20.6487 C   0  0  0  0  0  0
   55.8744  -34.9829   20.3176 O   0  0  0  0  0  0
   44.3746  -41.2772   18.8460 O   0  0  0  0  0  0
   45.7279  -41.1474   19.1372 C   0  0  0  0  0  0
   45.9747  -39.7543   19.1331 N   0  0  0  0  0  0
   44.7824  -39.1292   18.8366 C   0  0  0  0  0  0
   43.7208  -40.0818   18.6376 C   0  0  0  0  0  0
   42.2466  -39.8411   18.2880 C   0  0  0  0  0  0
   46.6670  -42.1493   19.3805 C   0  0  0  0  0  0
   46.3793  -43.2957   20.2094 C   0  0  0  0  0  0
   47.3742  -44.2839   20.4275 C   0  0  0  0  0  0
   48.6556  -44.1476   19.8327 C   0  0  0  0  0  0
   48.9533  -43.0252   19.0128 C   0  0  0  0  0  0
   47.9685  -42.0309   18.7884 C   0  0  0  0  0  0
   45.6119  -36.8413   19.7413 C   0  0  0  0  0  0
   44.6903  -37.5675   18.7427 C   0  0  0  0  0  0
   50.8961  -34.2929   24.6329 O   0  0  0  0  0  0
   48.9723  -34.0251   23.5406 O   0  0  0  0  0  0
   50.2221  -33.8231   23.6840 C   0  0  0  0  0  0
   52.0513  -33.6163   20.9171 H   0  0  0  0  0  0
   48.4965  -34.5002   24.1933 H   0  0  0  0  0  0
  1  2  1  0  0  0
  1 11  1  0  0  0
  1 42  1  0  0  0
  2  3  1  0  0  0
  2 41  1  0  0  0
  3  4  1  0  0  0
  4  5  2  0  0  0
  4  6  1  0  0  0
  5  7  1  0  0  0
  6  8  2  0  0  0
  7  9  2  0  0  0
  8  9  1  0  0  0
  9 10  1  0  0  0
 10 37  1  0  0  0
 11 12  2  0  0  0
 11 16  1  0  0  0
 12 13  1  0  0  0
 12 23  1  0  0  0
 13 14  2  0  0  0
 14 15  1  0  0  0
 15 16  2  0  0  0
 17 18  2  0  0  0
 17 22  1  0  0  0
 17 23  1  0  0  0
 18 19  1  0  0  0
 19 20  2  0  0  0
 20 21  1  0  0  0
 21 22  2  0  0  0
 23 24  2  0  0  0
 25 26  1  0  0  0
 25 29  1  0  0  0
 26 27  2  0  0  0
 26 31  1  0  0  0
 27 28  1  0  0  0
 28 29  2  0  0  0
 28 38  1  0  0  0
 29 30  1  0  0  0
 31 32  2  0  0  0
 31 36  1  0  0  0
 32 33  1  0  0  0
 33 34  2  0  0  0
 34 35  1  0  0  0
 35 36  2  0  0  0
 37 38  1  0  0  0
 39 41  2  0  0  0
 40 41  1  0  0  0
 40 43  1  0  0  0
M  END
>  <CHROM.0>
22.13094187,172.16208899,30.31574205,149.42096989

>  <CHROM.1>
-151.76093911,-144.49524930,71.64295534,68.10655333,-63.46404161,85.48890289
-176.06004246,-5.21833975,107.31363439,-42.83888856,-34.68328119,154.46822037
-179.63761419,49.54592160,-36.43945312,20.54302733,-0.80217723,0.18592954
-3.08746233

>  <FORMUL>
      570    C34 H30 N2 O5

>  <HET>
 570  D 200      41

>  <HETNAM>
     570 2-(2-BENZOYL-PHENYLAMINO)-3-{4-[2-(5-METHYL-2-PHENYL-OX
   2 570 AZOL-4-YL)-ETHOXY]-PHENYL}-PROPIONIC ACID

>  <HETSYN>
     570 GI262570

>  <Name>
570.pdb

>  <RI>
0

>  <Rbt.Current_Directory>
/home/malgorzata/Desktop/rDOCK_IFD/Wyniki/14_ppar-gamma

>  <Rbt.Executable>
rbdock ($Id: //depot/dev/client3/rdock/2013.1/src/exe/rbdock.cxx#4 $)

>  <Rbt.Library>
libRbt.so (2013.1, Build901 2013/11/27)

>  <Rbt.Parameter_File>
/home/malgorzata/Desktop/rDock_2013.1_src/data/scripts/soft_docking.prm

>  <Rbt.Receptor>
cavity.prm

>  <SCORE>
-20.9058

>  <SCORE.INTER>
-29.5783

>  <SCORE.INTER.CONST>
1

>  <SCORE.INTER.POLAR>
-0.229628

>  <SCORE.INTER.REPUL>
0

>  <SCORE.INTER.ROT>
12

>  <SCORE.INTER.VDW>
-46.1976

>  <SCORE.INTER.norm>
-0.721422

>  <SCORE.INTRA>
5.9427

>  <SCORE.INTRA.DIHEDRAL>
23.0468

>  <SCORE.INTRA.DIHEDRAL.0>
12.9748

>  <SCORE.INTRA.POLAR>
0.058673

>  <SCORE.INTRA.POLAR.0>
-0.058673

>  <SCORE.INTRA.REPUL>
0

>  <SCORE.INTRA.REPUL.0>
0

>  <SCORE.INTRA.VDW>
1.13385

>  <SCORE.INTRA.VDW.0>
-4.98062

>  <SCORE.INTRA.norm>
0.144944

>  <SCORE.RESTR>
2.10277

>  <SCORE.RESTR.CAVITY>
2.10277

>  <SCORE.RESTR.norm>
0.051287

>  <SCORE.SYSTEM>
0.627066

>  <SCORE.SYSTEM.CONST>
0

>  <SCORE.SYSTEM.DIHEDRAL>
7.75349

>  <SCORE.SYSTEM.POLAR>
-0.393373

>  <SCORE.SYSTEM.REPUL>
0.0467333

>  <SCORE.SYSTEM.VDW>
-2.14588

>  <SCORE.SYSTEM.norm>
0.0152943

>  <SCORE.heavy>
41

>  <SCORE.norm>
-0.509897

$$$$
570.pdb
  rDOCK(R)          3D
libRbt.so/2013.1/901 2013/11/27
 43 47  0  0  0  0  0  0  0  0999 V2000
   46.6871  -36.2430   18.2130 N   0  0  0  0  0  0
   45.6070  -37.0593   17.5439 C   0  0  0  0  0  0
   45.3934  -38.4547   18.2096 C   0  0  0  0  0  0
   46.3803  -39.5335   17.7496 C   0  0  0  0  0  0
   47.3787  -39.9850   18.6740 C   0  0  0  0  0  0
   46.3216  -40.0882   16.4285 C   0  0  0  0  0  0
   48.3063  -40.9743   18.2960 C   0  0  0  0  0  0
   47.2482  -41.0818   16.0389 C   0  0  0  0  0  0
   48.2708  -41.5458   16.9843 C   0  0  0  0  0  0
   49.2647  -42.5391   16.7307 O   0  0  0  0  0  0
   48.1320  -36.1466   18.0214 C   0  0  0  0  0  0
   48.9334  -35.1816   18.7825 C   0  0  0  0  0  0
   50.3546  -35.1599   18.5273 C   0  0  0  0  0  0
   50.9522  -36.0277   17.5833 C   0  0  0  0  0  0
   50.1677  -36.9457   16.8619 C   0  0  0  0  0  0
   48.7886  -37.0096   17.0719 C   0  0  0  0  0  0
   48.9397  -33.8006   21.2427 C   0  0  0  0  0  0
   48.8420  -32.4399   21.7226 C   0  0  0  0  0  0
   49.3438  -32.0876   23.0087 C   0  0  0  0  0  0
   49.9469  -33.0863   23.8287 C   0  0  0  0  0  0
   50.0483  -34.4286   23.3638 C   0  0  0  0  0  0
   49.5504  -34.7817   22.0853 C   0  0  0  0  0  0
   48.3952  -34.1566   19.8678 C   0  0  0  0  0  0
   47.3237  -33.5721   19.6068 O   0  0  0  0  0  0
   47.7478  -46.8660   19.3594 O   0  0  0  0  0  0
   46.6751  -46.2565   18.7185 C   0  0  0  0  0  0
   47.2531  -45.4856   17.6826 N   0  0  0  0  0  0
   48.6184  -45.6600   17.7570 C   0  0  0  0  0  0
   48.9811  -46.5437   18.8347 C   0  0  0  0  0  0
   50.3700  -47.0121   19.2873 C   0  0  0  0  0  0
   45.3148  -46.3566   19.0096 C   0  0  0  0  0  0
   44.4047  -47.1321   18.2007 C   0  0  0  0  0  0
   43.0283  -47.1957   18.5403 C   0  0  0  0  0  0
   42.5418  -46.4961   19.6752 C   0  0  0  0  0  0
   43.4259  -45.7296   20.4822 C   0  0  0  0  0  0
   44.8025  -45.6572   20.1529 C   0  0  0  0  0  0
   48.9223  -43.7538   16.0206 C   0  0  0  0  0  0
   49.5811  -44.9389   16.7522 C   0  0  0  0  0  0
   43.5738  -36.3325   18.4881 O   0  0  0  0  0  0
   43.9844  -35.7273   16.3831 O   0  0  0  0  0  0
   44.3106  -36.3019   17.4725 C   0  0  0  0  0  0
   46.3473  -35.6544   18.9253 H   0  0  0  0  0  0
   44.3535  -36.0167   15.5719 H   0  0  0  0  0  0
  1  2  1  0  0  0
  1 11  1  0  0  0
  1 42  1  0  0  0
  2  3  1  0  0  0
  2 41  1  0  0  0
  3  4  1  0  0  0
  4  5  2  0  0  0
  4  6  1  0  0  0
  5  7  1  0  0  0
  6  8  2  0  0  0
  7  9  2  0  0  0
  8  9  1  0  0  0
  9 10  1  0  0  0
 10 37  1  0  0  0
 11 12  2  0  0  0
 11 16  1  0  0  0
 12 13  1  0  0  0
 12 23  1  0  0  0
 13 14  2  0  0  0
 14 15  1  0  0  0
 15 16  2  0  0  0
 17 18  2  0  0  0
 17 22  1  0  0  0
 17 23  1  0  0  0
 18 19  1  0  0  0
 19 20  2  0  0  0
 20 21  1  0  0  0
 21 22  2  0  0  0
 23 24  2  0  0  0
 25 26  1  0  0  0
 25 29  1  0  0  0
 26 27  2  0  0  0
 26 31  1  0  0  0
 27 28  1  0  0  0
 28 29  2  0  0  0
 28 38  1  0  0  0
 29 30  1  0  0  0
 31 32  2  0  0  0
 31 36  1  0  0  0
 32 33  1  0  0  0
 33 34  2  0  0  0
 34 35  1  0  0  0
 35 36  2  0  0  0
 37 38  1  0  0  0
 39 41  2  0  0  0
 40 41  1  0  0  0
 40 43  1  0  0  0
M  END
>  <CHROM.0>
170.71355081,19.90011949,132.67545834,-56.09721327

>  <CHROM.1>
88.43537756,176.10771042,-82.51474537,-83.62764366,109.28409747,137.49052881
-136.13187506,135.01542755,144.17201597,-105.31256865,17.50308213,96.15250648
22.38474567,47.39123155,-39.89636806,18.73196559,1.40280902,-0.18805484,0.11133227

>  <FORMUL>
      570    C34 H30 N2 O5

>  <HET>
 570  D 200      41

>  <HETNAM>
     570 2-(2-BENZOYL-PHENYLAMINO)-3-{4-[2-(5-METHYL-2-PHENYL-OX
   2 570 AZOL-4-YL)-ETHOXY]-PHENYL}-PROPIONIC ACID

>  <HETSYN>
     570 GI262570

>  <Name>
570.pdb

>  <RI>
0

>  <Rbt.Current_Directory>
/home/malgorzata/Desktop/rDOCK_IFD/Wyniki/14_ppar-gamma

>  <Rbt.Executable>
rbdock ($Id: //depot/dev/client3/rdock/2013.1/src/exe/rbdock.cxx#4 $)

>  <Rbt.Library>
libRbt.so (2013.1, Build901 2013/11/27)

>  <Rbt.Parameter_File>
/home/malgorzata/Desktop/rDock_2013.1_src/data/scripts/soft_docking.prm

>  <Rbt.Receptor>
cavity.prm

>  <SCORE>
-12.5246

>  <SCORE.INTER>
-25.0577

>  <SCORE.INTER.CONST>
1

>  <SCORE.INTER.POLAR>
-0.559444

>  <SCORE.INTER.REPUL>
0

>  <SCORE.INTER.ROT>
12

>  <SCORE.INTER.VDW>
-40.5556

>  <SCORE.INTER.norm>
-0.611164

>  <SCORE.INTRA>
7.25434

>  <SCORE.INTRA.DIHEDRAL>
34.6026

>  <SCORE.INTRA.DIHEDRAL.0>
12.9748

>  <SCORE.INTRA.POLAR>
0.058673

>  <SCORE.INTRA.POLAR.0>
-0.058673

>  <SCORE.INTRA.REPUL>
0

>  <SCORE.INTRA.REPUL.0>
0

>  <SCORE.INTRA.VDW>
0.134336

>  <SCORE.INTRA.VDW.0>
-4.98062

>  <SCORE.INTRA.norm>
0.176935

>  <SCORE.RESTR>
2.04851

>  <SCORE.RESTR.CAVITY>
2.04851

>  <SCORE.RESTR.norm>
0.0499637

>  <SCORE.SYSTEM>
3.23025

>  <SCORE.SYSTEM.CONST>
0

>  <SCORE.SYSTEM.DIHEDRAL>
11.7473

>  <SCORE.SYSTEM.POLAR>
-0.331506

>  <SCORE.SYSTEM.REPUL>
0.0467333

>  <SCORE.SYSTEM.VDW>
-1.74993

>  <SCORE.SYSTEM.norm>
0.0787866

>  <SCORE.heavy>
41

>  <SCORE.norm>
-0.305479

$$$$
