@<TRIPOS>MOLECULE
pose5.pdb
 71 75 0 0 0
SMALL
GASTEIGER

@<TRIPOS>ATOM
      1  N1        47.0540  -42.9180   16.3360 N.pl3   1  LIG1       -0.3306
      2  C1        46.4600  -44.1360   17.0010 C.3     1  LIG1        0.1223
      3  C2        45.4490  -43.7820   18.1360 C.3     1  LIG1        0.0012
      4  C3        45.5120  -42.3250   18.6080 C.ar    1  LIG1       -0.0449
      5  C4        46.7970  -41.7440   18.8600 C.ar    1  LIG1       -0.0550
      6  C5        44.3220  -41.5480   18.7990 C.ar    1  LIG1       -0.0550
      7  C6        46.9040  -40.4090   19.2950 C.ar    1  LIG1       -0.0197
      8  C7        44.4170  -40.2070   19.2350 C.ar    1  LIG1       -0.0197
      9  C8        45.7330  -39.6090   19.4930 C.ar    1  LIG1        0.1205
     10  O1        45.9800  -38.2740   19.9330 O.3     1  LIG1       -0.4916
     11  C9        48.4070  -42.5700   15.9100 C.ar    1  LIG1        0.0387
     12  C10       48.6350  -41.6320   14.8050 C.ar    1  LIG1        0.0431
     13  C11       50.0070  -41.3460   14.4570 C.ar    1  LIG1       -0.0491
     14  C12       51.0880  -41.9450   15.1460 C.ar    1  LIG1       -0.0610
     15  C13       50.8500  -42.8430   16.2020 C.ar    1  LIG1       -0.0600
     16  C14       49.5420  -43.1520   16.5810 C.ar    1  LIG1       -0.0401
     17  C15       46.8560  -39.5380   14.1630 C.ar    1  LIG1        0.0223
     18  C16       47.6560  -38.3980   14.5520 C.ar    1  LIG1       -0.0509
     19  C17       47.0510  -37.1230   14.7510 C.ar    1  LIG1       -0.0611
     20  C18       45.6460  -36.9720   14.5640 C.ar    1  LIG1       -0.0617
     21  C19       44.8500  -38.0900   14.1820 C.ar    1  LIG1       -0.0611
     22  C20       45.4490  -39.3580   13.9830 C.ar    1  LIG1       -0.0509
     23  C21       47.5210  -40.8900   13.9530 C.2     1  LIG1        0.1949
     24  O2        47.0530  -41.5120   12.9770 O.2     1  LIG1       -0.2866
     25  O3        47.9190  -34.0350   18.4380 O.2     1  LIG1       -0.4402
     26  C22       48.1850  -34.5510   19.7020 C.ar    1  LIG1        0.2276
     27  N2        47.1400  -35.4710   19.9530 N.ar    1  LIG1       -0.2136
     28  C23       46.3100  -35.4560   18.8520 C.ar    1  LIG1        0.0860
     29  C24       46.7770  -34.5330   17.8500 C.ar    1  LIG1        0.1258
     30  C25       46.1720  -34.1900   16.4820 C.3     1  LIG1       -0.0045
     31  C26       49.2390  -34.2470   20.5630 C.ar    1  LIG1        0.0369
     32  C27       50.3710  -33.4520   20.1510 C.ar    1  LIG1       -0.0495
     33  C28       51.4190  -33.1760   21.0680 C.ar    1  LIG1       -0.0610
     34  C29       51.3580  -33.6840   22.3920 C.ar    1  LIG1       -0.0617
     35  C30       50.2480  -34.4670   22.8130 C.ar    1  LIG1       -0.0610
     36  C31       49.1970  -34.7500   21.9060 C.ar    1  LIG1       -0.0495
     37  C32       44.9000  -37.3120   19.9970 C.3     1  LIG1        0.0951
     38  C33       45.0320  -36.3610   18.7910 C.3     1  LIG1        0.0272
     39  O4        44.8780  -45.7740   16.3950 O.2     1  LIG1       -0.2489
     40  O5        46.3150  -45.1260   14.8200 O.3     1  LIG1       -0.4793
     41  C34       45.8280  -45.0580   15.9960 C.2     1  LIG1        0.3255
     42  H1        46.3930  -42.2120   16.1500 H       1  LIG1        0.1469
     43  H2        47.2000  -44.8610   14.6640 H       1  LIG1        0.2951
     44 H          47.2786  -44.6460   17.4643 H       1  LIG1        0.0617
     45 H          45.6524  -44.4146   18.9747 H       1  LIG1        0.0337
     46 H          44.4700  -43.9295   17.7301 H       1  LIG1        0.0337
     47 H          47.6503  -42.3078   18.7218 H       1  LIG1        0.0621
     48 H          43.3967  -41.9678   18.6182 H       1  LIG1        0.0621
     49 H          47.8359  -40.0030   19.4729 H       1  LIG1        0.0654
     50 H          43.5607  -39.6476   19.3722 H       1  LIG1        0.0654
     51 H          50.2040  -40.6883   13.6865 H       1  LIG1        0.0625
     52 H          52.0575  -41.7215   14.8719 H       1  LIG1        0.0618
     53 H          51.6449  -43.2751   16.6985 H       1  LIG1        0.0618
     54 H          49.3846  -43.8117   17.3588 H       1  LIG1        0.0636
     55 H          48.6732  -38.5085   14.6866 H       1  LIG1        0.0625
     56 H          47.6272  -36.3132   15.0291 H       1  LIG1        0.0618
     57 H          45.2042  -36.0502   14.7057 H       1  LIG1        0.0618
     58 H          43.8329  -37.9756   14.0497 H       1  LIG1        0.0618
     59 H          44.8633  -40.1610   13.7050 H       1  LIG1        0.0625
     60 H          46.7826  -33.4584   15.9953 H       1  LIG1        0.0308
     61 H          45.1852  -33.7987   16.6164 H       1  LIG1        0.0308
     62 H          46.1264  -35.0737   15.8805 H       1  LIG1        0.0308
     63 H          50.4186  -33.0836   19.1882 H       1  LIG1        0.0625
     64 H          52.2262  -32.6053   20.7716 H       1  LIG1        0.0618
     65 H          52.1243  -33.4838   23.0536 H       1  LIG1        0.0618
     66 H          50.2081  -34.8289   23.7786 H       1  LIG1        0.0618
     67 H          48.3952  -35.3223   22.2137 H       1  LIG1        0.0625
     68 H          44.9652  -36.7539   20.9076 H       1  LIG1        0.0700
     69 H          43.9553  -37.8137   19.9711 H       1  LIG1        0.0700
     70 H          45.0745  -36.9489   17.8980 H       1  LIG1        0.0362
     71 H          44.1823  -35.7108   18.8057 H       1  LIG1        0.0362
@<TRIPOS>BOND
     1     1     2    1
     2     1    11    1
     3     1    42    1
     4     2     3    1
     5     2    41    1
     6     3     4    1
     7     4     5   ar
     8     4     6   ar
     9     5     7   ar
    10     6     8   ar
    11     7     9   ar
    12     8     9   ar
    13     9    10    1
    14    10    37    1
    15    11    12   ar
    16    11    16   ar
    17    12    13   ar
    18    12    23    1
    19    13    14   ar
    20    14    15   ar
    21    15    16   ar
    22    17    18   ar
    23    17    22   ar
    24    17    23    1
    25    18    19   ar
    26    19    20   ar
    27    20    21   ar
    28    21    22   ar
    29    23    24    2
    30    25    26   ar
    31    25    29   ar
    32    26    27   ar
    33    26    31    1
    34    27    28   ar
    35    28    29   ar
    36    28    38    1
    37    29    30    1
    38    31    32   ar
    39    31    36   ar
    40    32    33   ar
    41    33    34   ar
    42    34    35   ar
    43    35    36   ar
    44    37    38    1
    45    39    41    2
    46    40    41    1
    47    40    43    1
    48     2    44    1
    49     3    45    1
    50     3    46    1
    51     5    47    1
    52     6    48    1
    53     7    49    1
    54     8    50    1
    55    13    51    1
    56    14    52    1
    57    15    53    1
    58    16    54    1
    59    18    55    1
    60    19    56    1
    61    20    57    1
    62    21    58    1
    63    22    59    1
    64    30    60    1
    65    30    61    1
    66    30    62    1
    67    32    63    1
    68    33    64    1
    69    34    65    1
    70    35    66    1
    71    36    67    1
    72    37    68    1
    73    37    69    1
    74    38    70    1
    75    38    71    1
