@<TRIPOS>MOLECULE
pose8.pdb
 71 75 0 0 0
SMALL
GASTEIGER

@<TRIPOS>ATOM
      1  N1        46.5640  -38.6320   15.2550 N.pl3   1  LIG1       -0.3306
      2  C1        46.3690  -37.8020   16.5010 C.3     1  LIG1        0.1223
      3  C2        46.6980  -36.2910   16.2880 C.3     1  LIG1        0.0012
      4  C3        48.0330  -35.8420   16.8930 C.ar    1  LIG1       -0.0449
      5  C4        48.0190  -34.8130   17.8910 C.ar    1  LIG1       -0.0550
      6  C5        49.2760  -36.4260   16.4800 C.ar    1  LIG1       -0.0550
      7  C6        49.2210  -34.3690   18.4750 C.ar    1  LIG1       -0.0197
      8  C7        50.4880  -35.9880   17.0600 C.ar    1  LIG1       -0.0197
      9  C8        50.4760  -34.9350   18.0830 C.ar    1  LIG1        0.1205
     10  O1        51.6160  -34.3970   18.7530 O.3     1  LIG1       -0.4916
     11  C9        47.1790  -39.9340   15.0060 C.ar    1  LIG1        0.0387
     12  C10       47.6320  -40.3120   13.6620 C.ar    1  LIG1        0.0431
     13  C11       48.2290  -41.6180   13.5130 C.ar    1  LIG1       -0.0491
     14  C12       48.3700  -42.4990   14.6100 C.ar    1  LIG1       -0.0610
     15  C13       47.9290  -42.1200   15.8910 C.ar    1  LIG1       -0.0600
     16  C14       47.3460  -40.8670   16.0910 C.ar    1  LIG1       -0.0401
     17  C15       46.3540  -38.6840   11.7450 C.ar    1  LIG1        0.0223
     18  C16       46.5080  -37.9980   10.4810 C.ar    1  LIG1       -0.0509
     19  C17       45.4120  -37.3010    9.8960 C.ar    1  LIG1       -0.0611
     20  C18       44.1520  -37.2810   10.5650 C.ar    1  LIG1       -0.0617
     21  C19       43.9920  -37.9520   11.8100 C.ar    1  LIG1       -0.0611
     22  C20       45.0800  -38.6460   12.3940 C.ar    1  LIG1       -0.0509
     23  C21       47.5370  -39.4250   12.3500 C.2     1  LIG1        0.1949
     24  O2        48.5660  -39.3460   11.6490 O.2     1  LIG1       -0.2866
     25  O3        55.0650  -35.2470   21.2880 O.2     1  LIG1       -0.4402
     26  C22       54.2510  -34.8220   22.3320 C.ar    1  LIG1        0.2276
     27  N2        53.4310  -33.8130   21.7740 N.ar    1  LIG1       -0.2136
     28  C23       53.7930  -33.6790   20.4510 C.ar    1  LIG1        0.0860
     29  C24       54.8540  -34.5870   20.0970 C.ar    1  LIG1        0.1258
     30  C25       55.5660  -34.7790   18.7520 C.3     1  LIG1       -0.0045
     31  C26       54.2240  -35.2680   23.6530 C.ar    1  LIG1        0.0369
     32  C27       55.3960  -35.2620   24.4960 C.ar    1  LIG1       -0.0495
     33  C28       55.3130  -35.7310   25.8330 C.ar    1  LIG1       -0.0610
     34  C29       54.0790  -36.2090   26.3450 C.ar    1  LIG1       -0.0617
     35  C30       52.9160  -36.2190   25.5270 C.ar    1  LIG1       -0.0610
     36  C31       52.9860  -35.7550   24.1910 C.ar    1  LIG1       -0.0495
     37  C32       51.6330  -33.0120   19.1740 C.3     1  LIG1        0.0951
     38  C33       53.0860  -32.6330   19.5220 C.3     1  LIG1        0.0272
     39  O4        44.8850  -38.1430   18.3000 O.2     1  LIG1       -0.2489
     40  O5        43.9890  -37.9960   16.2640 O.3     1  LIG1       -0.4793
     41  C34       44.9840  -37.9690   17.0610 C.2     1  LIG1        0.3255
     42  H1        46.2030  -38.2090   14.4420 H       1  LIG1        0.1469
     43  H2        43.2220  -37.4930   16.4550 H       1  LIG1        0.2951
     44 H          47.0736  -38.1742   17.2151 H       1  LIG1        0.0617
     45 H          45.9167  -35.7122   16.7347 H       1  LIG1        0.0337
     46 H          46.7760  -36.1416   15.2314 H       1  LIG1        0.0337
     47 H          47.1220  -34.3948   18.1834 H       1  LIG1        0.0621
     48 H          49.2854  -37.1653   15.7600 H       1  LIG1        0.0621
     49 H          49.1969  -33.6280   19.1929 H       1  LIG1        0.0654
     50 H          51.3826  -36.4089   16.7641 H       1  LIG1        0.0654
     51 H          48.5612  -41.9161   12.5825 H       1  LIG1        0.0625
     52 H          48.7996  -43.4268   14.4699 H       1  LIG1        0.0618
     53 H          48.0367  -42.7700   16.6853 H       1  LIG1        0.0618
     54 H          47.0278  -40.6035   17.0367 H       1  LIG1        0.0636
     55 H          47.4202  -38.0136    9.9986 H       1  LIG1        0.0625
     56 H          45.5287  -36.8135    8.9939 H       1  LIG1        0.0618
     57 H          43.3544  -36.7786   10.1450 H       1  LIG1        0.0618
     58 H          43.0785  -37.9328   12.2898 H       1  LIG1        0.0618
     59 H          44.9521  -39.1291   13.2969 H       1  LIG1        0.0625
     60 H          56.3084  -35.5436   18.8474 H       1  LIG1        0.0308
     61 H          56.0341  -33.8616   18.4621 H       1  LIG1        0.0308
     62 H          54.8522  -35.0658   18.0083 H       1  LIG1        0.0308
     63 H          56.2952  -34.9163   24.1260 H       1  LIG1        0.0625
     64 H          56.1519  -35.7244   26.4340 H       1  LIG1        0.0618
     65 H          54.0253  -36.5515   27.3170 H       1  LIG1        0.0618
     66 H          52.0209  -36.5644   25.9070 H       1  LIG1        0.0618
     67 H          52.1403  -35.7672   23.5997 H       1  LIG1        0.0625
     68 H          51.0099  -32.8873   20.0349 H       1  LIG1        0.0700
     69 H          51.2640  -32.3829   18.3911 H       1  LIG1        0.0700
     70 H          53.6439  -32.5546   18.6123 H       1  LIG1        0.0362
     71 H          53.0531  -31.7060   20.0554 H       1  LIG1        0.0362
@<TRIPOS>BOND
     1     1     2    1
     2     1    11    1
     3     1    42    1
     4     2     3    1
     5     2    41    1
     6     3     4    1
     7     4     5   ar
     8     4     6   ar
     9     5     7   ar
    10     6     8   ar
    11     7     9   ar
    12     8     9   ar
    13     9    10    1
    14    10    37    1
    15    11    12   ar
    16    11    16   ar
    17    12    13   ar
    18    12    23    1
    19    13    14   ar
    20    14    15   ar
    21    15    16   ar
    22    17    18   ar
    23    17    22   ar
    24    17    23    1
    25    18    19   ar
    26    19    20   ar
    27    20    21   ar
    28    21    22   ar
    29    23    24    2
    30    25    26   ar
    31    25    29   ar
    32    26    27   ar
    33    26    31    1
    34    27    28   ar
    35    28    29   ar
    36    28    38    1
    37    29    30    1
    38    31    32   ar
    39    31    36   ar
    40    32    33   ar
    41    33    34   ar
    42    34    35   ar
    43    35    36   ar
    44    37    38    1
    45    39    41    2
    46    40    41    1
    47    40    43    1
    48     2    44    1
    49     3    45    1
    50     3    46    1
    51     5    47    1
    52     6    48    1
    53     7    49    1
    54     8    50    1
    55    13    51    1
    56    14    52    1
    57    15    53    1
    58    16    54    1
    59    18    55    1
    60    19    56    1
    61    20    57    1
    62    21    58    1
    63    22    59    1
    64    30    60    1
    65    30    61    1
    66    30    62    1
    67    32    63    1
    68    33    64    1
    69    34    65    1
    70    35    66    1
    71    36    67    1
    72    37    68    1
    73    37    69    1
    74    38    70    1
    75    38    71    1
