@<TRIPOS>MOLECULE
pose1.pdb
 71 75 0 0 0
SMALL
GASTEIGER

@<TRIPOS>ATOM
      1  N1        50.4250  -34.0150   21.2180 N.pl3   1  LIG1       -0.3306
      2  C1        49.4680  -32.9670   21.7340 C.3     1  LIG1        0.1223
      3  C2        48.2210  -32.7720   20.8170 C.3     1  LIG1        0.0012
      4  C3        47.8370  -34.0100   19.9990 C.ar    1  LIG1       -0.0449
      5  C4        48.0080  -33.9680   18.5760 C.ar    1  LIG1       -0.0550
      6  C5        47.3150  -35.1890   20.6250 C.ar    1  LIG1       -0.0550
      7  C6        47.6690  -35.0820   17.7840 C.ar    1  LIG1       -0.0197
      8  C7        46.9720  -36.3120   19.8390 C.ar    1  LIG1       -0.0197
      9  C8        47.1470  -36.2730   18.3820 C.ar    1  LIG1        0.1205
     10  O1        46.8460  -37.3270   17.4680 O.3     1  LIG1       -0.4916
     11  C9        51.4180  -34.8690   21.8650 C.ar    1  LIG1        0.0387
     12  C10       52.7960  -34.9400   21.3650 C.ar    1  LIG1        0.0431
     13  C11       53.7080  -35.8100   22.0700 C.ar    1  LIG1       -0.0491
     14  C12       53.2940  -36.5650   23.1920 C.ar    1  LIG1       -0.0610
     15  C13       51.9690  -36.4860   23.6560 C.ar    1  LIG1       -0.0600
     16  C14       51.0470  -35.6580   23.0120 C.ar    1  LIG1       -0.0401
     17  C15       52.9770  -32.8190   19.5130 C.ar    1  LIG1        0.0223
     18  C16       53.2200  -31.5900   20.2350 C.ar    1  LIG1       -0.0509
     19  C17       52.8420  -30.3350   19.6770 C.ar    1  LIG1       -0.0611
     20  C18       52.2170  -30.2920   18.3950 C.ar    1  LIG1       -0.0617
     21  C19       51.9720  -31.4970   17.6780 C.ar    1  LIG1       -0.0611
     22  C20       52.3480  -32.7470   18.2300 C.ar    1  LIG1       -0.0509
     23  C21       53.3910  -34.1480   20.1250 C.2     1  LIG1        0.1949
     24  O2        54.3130  -34.7040   19.4930 O.2     1  LIG1       -0.2866
     25  O3        46.5140  -42.6550   15.3560 O.2     1  LIG1       -0.4402
     26  C22       46.2070  -42.8040   16.7040 C.ar    1  LIG1        0.2276
     27  N2        46.6450  -41.6070   17.3170 N.ar    1  LIG1       -0.2136
     28  C23       47.1910  -40.8170   16.3280 C.ar    1  LIG1        0.0860
     29  C24       47.1300  -41.4620   15.0420 C.ar    1  LIG1        0.1258
     30  C25       47.6180  -40.9630   13.6750 C.3     1  LIG1       -0.0045
     31  C26       45.6050  -43.8860   17.3460 C.ar    1  LIG1        0.0369
     32  C27       45.5860  -44.0210   18.7830 C.ar    1  LIG1       -0.0495
     33  C28       44.9630  -45.1450   19.3840 C.ar    1  LIG1       -0.0610
     34  C29       44.3570  -46.1410   18.5740 C.ar    1  LIG1       -0.0617
     35  C30       44.3660  -46.0210   17.1580 C.ar    1  LIG1       -0.0610
     36  C31       44.9860  -44.9030   16.5460 C.ar    1  LIG1       -0.0495
     37  C32       47.0830  -38.7070   17.8370 C.3     1  LIG1        0.0951
     38  C33       47.7860  -39.4050   16.6570 C.3     1  LIG1        0.0272
     39  O4        48.3290  -34.2690   23.3340 O.2     1  LIG1       -0.2489
     40  O5        49.3700  -32.4430   24.0730 O.3     1  LIG1       -0.4793
     41  C34       49.0470  -33.2570   23.1480 C.2     1  LIG1        0.3255
     42  H1        50.3680  -34.1510   20.2440 H       1  LIG1        0.1469
     43  H2        48.8200  -32.3450   24.8250 H       1  LIG1        0.2951
     44 H          50.0081  -32.0434   21.7207 H       1  LIG1        0.0617
     45 H          48.4275  -31.9723   20.1368 H       1  LIG1        0.0337
     46 H          47.3948  -32.5656   21.4648 H       1  LIG1        0.0337
     47 H          48.3819  -33.1161   18.1294 H       1  LIG1        0.0621
     48 H          47.1898  -35.2177   21.6490 H       1  LIG1        0.0621
     49 H          47.7984  -35.0391   16.7610 H       1  LIG1        0.0654
     50 H          46.5977  -37.1614   20.2901 H       1  LIG1        0.0654
     51 H          54.6855  -35.8825   21.7472 H       1  LIG1        0.0625
     52 H          53.9695  -37.1786   23.6738 H       1  LIG1        0.0618
     53 H          51.6769  -37.0417   24.4751 H       1  LIG1        0.0618
     54 H          50.0786  -35.6102   23.3655 H       1  LIG1        0.0636
     55 H          53.6712  -31.6223   21.1626 H       1  LIG1        0.0625
     56 H          53.0193  -29.4615   20.1972 H       1  LIG1        0.0618
     57 H          51.9419  -29.3850   17.9866 H       1  LIG1        0.0618
     58 H          51.5184  -31.4602   16.7518 H       1  LIG1        0.0618
     59 H          52.1662  -33.6143   17.7010 H       1  LIG1        0.0625
     60 H          47.4114  -41.7033   12.9306 H       1  LIG1        0.0308
     61 H          48.6720  -40.7832   13.7164 H       1  LIG1        0.0308
     62 H          47.1108  -40.0546   13.4250 H       1  LIG1        0.0308
     63 H          46.0263  -43.2987   19.3742 H       1  LIG1        0.0625
     64 H          44.9503  -45.2387   20.4117 H       1  LIG1        0.0618
     65 H          43.9070  -46.9576   19.0164 H       1  LIG1        0.0618
     66 H          43.9213  -46.7476   16.5755 H       1  LIG1        0.0618
     67 H          44.9921  -44.8201   15.5174 H       1  LIG1        0.0625
     68 H          46.1518  -39.1923   18.0427 H       1  LIG1        0.0700
     69 H          47.6943  -38.7561   18.7138 H       1  LIG1        0.0700
     70 H          47.6898  -38.7855   15.7899 H       1  LIG1        0.0362
     71 H          48.8083  -39.5496   16.9379 H       1  LIG1        0.0362
@<TRIPOS>BOND
     1     1     2    1
     2     1    11    1
     3     1    42    1
     4     2     3    1
     5     2    41    1
     6     3     4    1
     7     4     5   ar
     8     4     6   ar
     9     5     7   ar
    10     6     8   ar
    11     7     9   ar
    12     8     9   ar
    13     9    10    1
    14    10    37    1
    15    11    12   ar
    16    11    16   ar
    17    12    13   ar
    18    12    23    1
    19    13    14   ar
    20    14    15   ar
    21    15    16   ar
    22    17    18   ar
    23    17    22   ar
    24    17    23    1
    25    18    19   ar
    26    19    20   ar
    27    20    21   ar
    28    21    22   ar
    29    23    24    2
    30    25    26   ar
    31    25    29   ar
    32    26    27   ar
    33    26    31    1
    34    27    28   ar
    35    28    29   ar
    36    28    38    1
    37    29    30    1
    38    31    32   ar
    39    31    36   ar
    40    32    33   ar
    41    33    34   ar
    42    34    35   ar
    43    35    36   ar
    44    37    38    1
    45    39    41    2
    46    40    41    1
    47    40    43    1
    48     2    44    1
    49     3    45    1
    50     3    46    1
    51     5    47    1
    52     6    48    1
    53     7    49    1
    54     8    50    1
    55    13    51    1
    56    14    52    1
    57    15    53    1
    58    16    54    1
    59    18    55    1
    60    19    56    1
    61    20    57    1
    62    21    58    1
    63    22    59    1
    64    30    60    1
    65    30    61    1
    66    30    62    1
    67    32    63    1
    68    33    64    1
    69    34    65    1
    70    35    66    1
    71    36    67    1
    72    37    68    1
    73    37    69    1
    74    38    70    1
    75    38    71    1
