@<TRIPOS>MOLECULE
pose9.pdb
 71 75 0 0 0
SMALL
GASTEIGER

@<TRIPOS>ATOM
      1  N1        47.1070  -36.9110   16.4380 N.pl3   1  LIG1       -0.3306
      2  C1        46.9580  -35.5310   15.8430 C.3     1  LIG1        0.1223
      3  C2        48.2880  -34.7150   15.8490 C.3     1  LIG1        0.0012
      4  C3        49.0690  -34.7880   17.1660 C.ar    1  LIG1       -0.0449
      5  C4        50.4210  -34.3100   17.1860 C.ar    1  LIG1       -0.0550
      6  C5        48.4780  -35.3190   18.3600 C.ar    1  LIG1       -0.0550
      7  C6        51.1770  -34.3570   18.3730 C.ar    1  LIG1       -0.0197
      8  C7        49.2280  -35.3700   19.5560 C.ar    1  LIG1       -0.0197
      9  C8        50.6120  -34.8810   19.5780 C.ar    1  LIG1        0.1205
     10  O1        51.4840  -34.8690   20.7090 O.3     1  LIG1       -0.4916
     11  C9        46.1640  -37.8430   17.0510 C.ar    1  LIG1        0.0387
     12  C10       45.7600  -39.0740   16.3600 C.ar    1  LIG1        0.0431
     13  C11       44.8250  -39.9360   17.0440 C.ar    1  LIG1       -0.0491
     14  C12       44.3150  -39.6110   18.3230 C.ar    1  LIG1       -0.0610
     15  C13       44.7130  -38.4260   18.9700 C.ar    1  LIG1       -0.0600
     16  C14       45.6170  -37.5580   18.3530 C.ar    1  LIG1       -0.0401
     17  C15       46.7380  -40.9240   14.4690 C.ar    1  LIG1        0.0223
     18  C16       47.8440  -41.0160   13.5420 C.ar    1  LIG1       -0.0509
     19  C17       48.3140  -42.2860   13.0980 C.ar    1  LIG1       -0.0611
     20  C18       47.6870  -43.4760   13.5730 C.ar    1  LIG1       -0.0617
     21  C19       46.5960  -43.3950   14.4850 C.ar    1  LIG1       -0.0611
     22  C20       46.1270  -42.1330   14.9280 C.ar    1  LIG1       -0.0509
     23  C21       46.2540  -39.5590   14.9320 C.2     1  LIG1        0.1949
     24  O2        46.3200  -38.6930   14.0360 O.2     1  LIG1       -0.2866
     25  O3        55.2310  -36.4390   22.3950 O.2     1  LIG1       -0.4402
     26  C22       55.2080  -35.3510   21.5300 C.ar    1  LIG1        0.2276
     27  N2        53.9330  -34.7630   21.7100 N.ar    1  LIG1       -0.2136
     28  C23       53.2650  -35.5180   22.6500 C.ar    1  LIG1        0.0860
     29  C24       54.0700  -36.6180   23.1160 C.ar    1  LIG1        0.1258
     30  C25       53.7350  -37.7060   24.1430 C.3     1  LIG1       -0.0045
     31  C26       56.2020  -34.9090   20.6580 C.ar    1  LIG1        0.0369
     32  C27       57.4470  -34.3450   21.1240 C.ar    1  LIG1       -0.0495
     33  C28       58.4230  -33.9070   20.1920 C.ar    1  LIG1       -0.0610
     34  C29       58.1780  -34.0200   18.7980 C.ar    1  LIG1       -0.0617
     35  C30       56.9580  -34.5750   18.3240 C.ar    1  LIG1       -0.0610
     36  C31       55.9750  -35.0150   19.2450 C.ar    1  LIG1       -0.0495
     37  C32       51.0040  -34.4190   22.0000 C.3     1  LIG1        0.0951
     38  C33       51.8060  -35.1530   23.0920 C.3     1  LIG1        0.0272
     39  O4        47.1890  -35.6840   13.5030 O.2     1  LIG1       -0.2489
     40  O5        45.1190  -35.4760   14.3030 O.3     1  LIG1       -0.4793
     41  C34       46.3790  -35.5900   14.4570 C.2     1  LIG1        0.3255
     42  H1        48.0300  -37.2520   16.4070 H       1  LIG1        0.1469
     43  H2        44.7680  -35.2510   13.4640 H       1  LIG1        0.2951
     44 H          46.2724  -35.0099   16.4781 H       1  LIG1        0.0617
     45 H          48.0523  -33.6893   15.6560 H       1  LIG1        0.0337
     46 H          48.9151  -35.1471   15.0974 H       1  LIG1        0.0337
     47 H          50.8427  -33.9290   16.3246 H       1  LIG1        0.0621
     48 H          47.5054  -35.6636   18.3454 H       1  LIG1        0.0621
     49 H          52.1488  -34.0098   18.3735 H       1  LIG1        0.0654
     50 H          48.8025  -35.7515   20.4153 H       1  LIG1        0.0654
     51 H          44.5213  -40.8108   16.5886 H       1  LIG1        0.0625
     52 H          43.6465  -40.2472   18.7848 H       1  LIG1        0.0618
     53 H          44.3358  -38.1977   19.9031 H       1  LIG1        0.0618
     54 H          45.8993  -36.6934   18.8406 H       1  LIG1        0.0636
     55 H          48.2969  -40.1545   13.1990 H       1  LIG1        0.0625
     56 H          49.1038  -42.3445   12.4363 H       1  LIG1        0.0618
     57 H          48.0247  -44.3979   13.2550 H       1  LIG1        0.0618
     58 H          46.1451  -44.2589   14.8247 H       1  LIG1        0.0618
     59 H          45.3359  -42.0859   15.5890 H       1  LIG1        0.0625
     60 H          54.5698  -38.3671   24.2474 H       1  LIG1        0.0308
     61 H          52.8813  -38.2591   23.8110 H       1  LIG1        0.0308
     62 H          53.5200  -37.2511   25.0873 H       1  LIG1        0.0308
     63 H          57.6271  -34.2604   22.1366 H       1  LIG1        0.0625
     64 H          59.3125  -33.5056   20.5278 H       1  LIG1        0.0618
     65 H          58.8902  -33.6971   18.1245 H       1  LIG1        0.0618
     66 H          56.7883  -34.6574   17.3094 H       1  LIG1        0.0618
     67 H          55.0894  -35.4146   18.8970 H       1  LIG1        0.0625
     68 H          49.9633  -34.6469   22.0995 H       1  LIG1        0.0700
     69 H          51.1319  -33.3609   22.0945 H       1  LIG1        0.0700
     70 H          51.8602  -34.5228   23.9550 H       1  LIG1        0.0362
     71 H          51.2971  -36.0720   23.2952 H       1  LIG1        0.0362
@<TRIPOS>BOND
     1     1     2    1
     2     1    11    1
     3     1    42    1
     4     2     3    1
     5     2    41    1
     6     3     4    1
     7     4     5   ar
     8     4     6   ar
     9     5     7   ar
    10     6     8   ar
    11     7     9   ar
    12     8     9   ar
    13     9    10    1
    14    10    37    1
    15    11    12   ar
    16    11    16   ar
    17    12    13   ar
    18    12    23    1
    19    13    14   ar
    20    14    15   ar
    21    15    16   ar
    22    17    18   ar
    23    17    22   ar
    24    17    23    1
    25    18    19   ar
    26    19    20   ar
    27    20    21   ar
    28    21    22   ar
    29    23    24    2
    30    25    26   ar
    31    25    29   ar
    32    26    27   ar
    33    26    31    1
    34    27    28   ar
    35    28    29   ar
    36    28    38    1
    37    29    30    1
    38    31    32   ar
    39    31    36   ar
    40    32    33   ar
    41    33    34   ar
    42    34    35   ar
    43    35    36   ar
    44    37    38    1
    45    39    41    2
    46    40    41    1
    47    40    43    1
    48     2    44    1
    49     3    45    1
    50     3    46    1
    51     5    47    1
    52     6    48    1
    53     7    49    1
    54     8    50    1
    55    13    51    1
    56    14    52    1
    57    15    53    1
    58    16    54    1
    59    18    55    1
    60    19    56    1
    61    20    57    1
    62    21    58    1
    63    22    59    1
    64    30    60    1
    65    30    61    1
    66    30    62    1
    67    32    63    1
    68    33    64    1
    69    34    65    1
    70    35    66    1
    71    36    67    1
    72    37    68    1
    73    37    69    1
    74    38    70    1
    75    38    71    1
