@<TRIPOS>MOLECULE
pose7.pdb
 71 75 0 0 0
SMALL
GASTEIGER

@<TRIPOS>ATOM
      1  N1        52.4480  -34.1770   21.2740 N.pl3   1  LIG1       -0.3306
      2  C1        52.3760  -32.9890   20.3440 C.3     1  LIG1        0.1223
      3  C2        50.9190  -32.6470   19.9000 C.3     1  LIG1        0.0012
      4  C3        50.1510  -33.8240   19.2890 C.ar    1  LIG1       -0.0449
      5  C4        49.6270  -34.8280   20.1690 C.ar    1  LIG1       -0.0550
      6  C5        49.9520  -33.9350   17.8730 C.ar    1  LIG1       -0.0550
      7  C6        48.9140  -35.9270   19.6530 C.ar    1  LIG1       -0.0197
      8  C7        49.2380  -35.0350   17.3460 C.ar    1  LIG1       -0.0197
      9  C8        48.7000  -36.0630   18.2450 C.ar    1  LIG1        0.1205
     10  O1        47.9620  -37.2210   17.8550 O.3     1  LIG1       -0.4916
     11  C9        53.5480  -35.0150   21.7430 C.ar    1  LIG1        0.0387
     12  C10       53.4360  -35.7850   22.9870 C.ar    1  LIG1        0.0431
     13  C11       54.5740  -36.5860   23.3700 C.ar    1  LIG1       -0.0491
     14  C12       55.7500  -36.6290   22.5840 C.ar    1  LIG1       -0.0610
     15  C13       55.8400  -35.8830   21.3950 C.ar    1  LIG1       -0.0600
     16  C14       54.7670  -35.0930   20.9780 C.ar    1  LIG1       -0.0401
     17  C15       52.1010  -36.1010   25.4530 C.ar    1  LIG1        0.0223
     18  C16       52.7220  -37.2860   26.0010 C.ar    1  LIG1       -0.0509
     19  C17       52.6600  -37.5560   27.3980 C.ar    1  LIG1       -0.0611
     20  C18       51.9800  -36.6490   28.2630 C.ar    1  LIG1       -0.0617
     21  C19       51.3640  -35.4800   27.7310 C.ar    1  LIG1       -0.0611
     22  C20       51.4240  -35.2090   26.3420 C.ar    1  LIG1       -0.0509
     23  C21       52.1810  -35.8300   23.9580 C.2     1  LIG1        0.1949
     24  O2        51.0590  -35.6780   23.4340 O.2     1  LIG1       -0.2866
     25  O3        46.8710  -41.1880   15.5070 O.2     1  LIG1       -0.4402
     26  C22       46.6870  -39.9240   14.9570 C.ar    1  LIG1        0.2276
     27  N2        46.6220  -39.0450   16.0640 N.ar    1  LIG1       -0.2136
     28  C23       46.7590  -39.8110   17.2020 C.ar    1  LIG1        0.0860
     29  C24       46.9170  -41.2070   16.8840 C.ar    1  LIG1        0.1258
     30  C25       47.0940  -42.4070   17.8230 C.3     1  LIG1       -0.0045
     31  C26       46.5800  -39.5650   13.6130 C.ar    1  LIG1        0.0369
     32  C27       46.6460  -40.5340   12.5450 C.ar    1  LIG1       -0.0495
     33  C28       46.5360  -40.1130   11.1950 C.ar    1  LIG1       -0.0610
     34  C29       46.3610  -38.7380   10.8890 C.ar    1  LIG1       -0.0617
     35  C30       46.2930  -37.7720   11.9300 C.ar    1  LIG1       -0.0610
     36  C31       46.4030  -38.1800   13.2830 C.ar    1  LIG1       -0.0495
     37  C32       46.7780  -37.6170   18.5890 C.3     1  LIG1        0.0951
     38  C33       46.7280  -39.1560   18.6250 C.3     1  LIG1        0.0272
     39  O4        53.7790  -31.9720   21.9420 O.2     1  LIG1       -0.2489
     40  O5        52.7920  -30.6290   20.4630 O.3     1  LIG1       -0.4793
     41  C34       53.0450  -31.7820   20.9420 C.2     1  LIG1        0.3255
     42  H1        51.5720  -34.4410   21.6390 H       1  LIG1        0.1469
     43  H2        53.4560  -29.9690   20.4560 H       1  LIG1        0.2951
     44 H          52.9098  -33.2736   19.4614 H       1  LIG1        0.0617
     45 H          50.9659  -31.8640   19.1722 H       1  LIG1        0.0337
     46 H          50.3888  -32.3626   20.7848 H       1  LIG1        0.0337
     47 H          49.7735  -34.7444   21.1871 H       1  LIG1        0.0621
     48 H          50.3296  -33.2128   17.2399 H       1  LIG1        0.0621
     49 H          48.5418  -36.6421   20.2973 H       1  LIG1        0.0654
     50 H          49.0946  -35.1156   16.3272 H       1  LIG1        0.0654
     51 H          54.5289  -37.1412   24.2387 H       1  LIG1        0.0625
     52 H          56.5468  -37.2116   22.8852 H       1  LIG1        0.0618
     53 H          56.7021  -35.9197   20.8289 H       1  LIG1        0.0618
     54 H          54.8485  -34.5528   20.1024 H       1  LIG1        0.0636
     55 H          53.2144  -37.9418   25.3745 H       1  LIG1        0.0625
     56 H          53.1051  -38.4040   27.7824 H       1  LIG1        0.0618
     57 H          51.9341  -36.8398   29.2762 H       1  LIG1        0.0618
     58 H          50.8716  -34.8273   28.3607 H       1  LIG1        0.0618
     59 H          50.9744  -34.3588   25.9678 H       1  LIG1        0.0625
     60 H          47.1826  -43.3027   17.2443 H       1  LIG1        0.0308
     61 H          46.2446  -42.4825   18.4693 H       1  LIG1        0.0308
     62 H          47.9782  -42.2729   18.4104 H       1  LIG1        0.0308
     63 H          46.7734  -41.5344   12.7640 H       1  LIG1        0.0625
     64 H          46.5833  -40.8079   10.4335 H       1  LIG1        0.0618
     65 H          46.2826  -38.4376    9.9048 H       1  LIG1        0.0618
     66 H          46.1636  -36.7742   11.7006 H       1  LIG1        0.0618
     67 H          46.3554  -37.4759   14.0360 H       1  LIG1        0.0625
     68 H          45.9049  -37.2373   18.1006 H       1  LIG1        0.0700
     69 H          46.8107  -37.2244   19.5838 H       1  LIG1        0.0700
     70 H          47.5713  -39.5102   19.1803 H       1  LIG1        0.0362
     71 H          45.8001  -39.4322   19.0806 H       1  LIG1        0.0362
@<TRIPOS>BOND
     1     1     2    1
     2     1    11    1
     3     1    42    1
     4     2     3    1
     5     2    41    1
     6     3     4    1
     7     4     5   ar
     8     4     6   ar
     9     5     7   ar
    10     6     8   ar
    11     7     9   ar
    12     8     9   ar
    13     9    10    1
    14    10    37    1
    15    11    12   ar
    16    11    16   ar
    17    12    13   ar
    18    12    23    1
    19    13    14   ar
    20    14    15   ar
    21    15    16   ar
    22    17    18   ar
    23    17    22   ar
    24    17    23    1
    25    18    19   ar
    26    19    20   ar
    27    20    21   ar
    28    21    22   ar
    29    23    24    2
    30    25    26   ar
    31    25    29   ar
    32    26    27   ar
    33    26    31    1
    34    27    28   ar
    35    28    29   ar
    36    28    38    1
    37    29    30    1
    38    31    32   ar
    39    31    36   ar
    40    32    33   ar
    41    33    34   ar
    42    34    35   ar
    43    35    36   ar
    44    37    38    1
    45    39    41    2
    46    40    41    1
    47    40    43    1
    48     2    44    1
    49     3    45    1
    50     3    46    1
    51     5    47    1
    52     6    48    1
    53     7    49    1
    54     8    50    1
    55    13    51    1
    56    14    52    1
    57    15    53    1
    58    16    54    1
    59    18    55    1
    60    19    56    1
    61    20    57    1
    62    21    58    1
    63    22    59    1
    64    30    60    1
    65    30    61    1
    66    30    62    1
    67    32    63    1
    68    33    64    1
    69    34    65    1
    70    35    66    1
    71    36    67    1
    72    37    68    1
    73    37    69    1
    74    38    70    1
    75    38    71    1
