@<TRIPOS>MOLECULE
pose4.pdb
 71 75 0 0 0
SMALL
GASTEIGER

@<TRIPOS>ATOM
      1  N1        50.4550  -34.6000   17.1250 N.pl3   1  LIG1       -0.3306
      2  C1        49.8870  -34.9420   15.7680 C.3     1  LIG1        0.1223
      3  C2        48.3450  -35.1790   15.7910 C.3     1  LIG1        0.0012
      4  C3        47.9270  -36.6480   15.6610 C.ar    1  LIG1       -0.0449
      5  C4        46.7120  -36.9530   14.9660 C.ar    1  LIG1       -0.0550
      6  C5        48.7220  -37.7050   16.2160 C.ar    1  LIG1       -0.0550
      7  C6        46.2880  -38.2880   14.8200 C.ar    1  LIG1       -0.0197
      8  C7        48.3060  -39.0480   16.0760 C.ar    1  LIG1       -0.0197
      9  C8        47.0620  -39.3630   15.3640 C.ar    1  LIG1        0.1205
     10  O1        46.5220  -40.6670   15.1450 O.3     1  LIG1       -0.4916
     11  C9        49.8460  -34.2430   18.4030 C.ar    1  LIG1        0.0387
     12  C10       50.4580  -34.6490   19.6730 C.ar    1  LIG1        0.0431
     13  C11       49.7850  -34.2480   20.8860 C.ar    1  LIG1       -0.0491
     14  C12       48.5850  -33.4990   20.8570 C.ar    1  LIG1       -0.0610
     15  C13       48.0120  -33.1200   19.6290 C.ar    1  LIG1       -0.0600
     16  C14       48.6230  -33.4800   18.4270 C.ar    1  LIG1       -0.0401
     17  C15       52.5740  -35.8440   21.1070 C.ar    1  LIG1        0.0223
     18  C16       53.8490  -35.2130   21.3680 C.ar    1  LIG1       -0.0509
     19  C17       54.5900  -35.5350   22.5410 C.ar    1  LIG1       -0.0611
     20  C18       54.0700  -36.4880   23.4650 C.ar    1  LIG1       -0.0617
     21  C19       52.8160  -37.1160   23.2160 C.ar    1  LIG1       -0.0611
     22  C20       52.0760  -36.7970   22.0500 C.ar    1  LIG1       -0.0509
     23  C21       51.7960  -35.4830   19.8510 C.2     1  LIG1        0.1949
     24  O2        52.3570  -35.8750   18.8070 O.2     1  LIG1       -0.2866
     25  O3        44.9390  -44.5350   16.4370 O.2     1  LIG1       -0.4402
     26  C22       46.1640  -44.5570   17.0950 C.ar    1  LIG1        0.2276
     27  N2        47.0570  -43.8750   16.2360 N.ar    1  LIG1       -0.2136
     28  C23       46.3410  -43.4920   15.1230 C.ar    1  LIG1        0.0860
     29  C24       44.9640  -43.9070   15.2110 C.ar    1  LIG1        0.1258
     30  C25       43.8180  -43.7050   14.2110 C.3     1  LIG1       -0.0045
     31  C26       46.4800  -45.1230   18.3300 C.ar    1  LIG1        0.0369
     32  C27       45.5360  -45.1750   19.4220 C.ar    1  LIG1       -0.0495
     33  C28       45.9120  -45.7590   20.6600 C.ar    1  LIG1       -0.0610
     34  C29       47.2170  -46.2920   20.8290 C.ar    1  LIG1       -0.0617
     35  C30       48.1560  -46.2490   19.7620 C.ar    1  LIG1       -0.0610
     36  C31       47.7930  -45.6680   18.5220 C.ar    1  LIG1       -0.0495
     37  C32       46.5400  -41.2540   13.8220 C.3     1  LIG1        0.0951
     38  C33       47.0260  -42.7110   13.9500 C.3     1  LIG1        0.0272
     39  O4        50.2750  -32.7080   15.1260 O.2     1  LIG1       -0.2489
     40  O5        50.4430  -34.2600   13.5360 O.3     1  LIG1       -0.4793
     41  C34       50.2480  -33.9030   14.7440 C.2     1  LIG1        0.3255
     42  H1        51.4390  -34.6230   17.1540 H       1  LIG1        0.1469
     43  H2        50.6570  -33.6190   12.8870 H       1  LIG1        0.2951
     44 H          50.3380  -35.8707   15.4869 H       1  LIG1        0.0617
     45 H          47.9108  -34.6346   14.9786 H       1  LIG1        0.0337
     46 H          47.9998  -34.8473   16.7479 H       1  LIG1        0.0337
     47 H          46.1432  -36.1887   14.5694 H       1  LIG1        0.0621
     48 H          49.5969  -37.4848   16.7170 H       1  LIG1        0.0621
     49 H          45.4111  -38.4935   14.3162 H       1  LIG1        0.0654
     50 H          48.8779  -39.8087   16.4751 H       1  LIG1        0.0654
     51 H          50.1896  -34.5145   21.7972 H       1  LIG1        0.0625
     52 H          48.1273  -33.2291   21.7417 H       1  LIG1        0.0618
     53 H          47.1365  -32.5737   19.6171 H       1  LIG1        0.0618
     54 H          48.1896  -33.1936   17.5353 H       1  LIG1        0.0636
     55 H          54.2251  -34.5235   20.6985 H       1  LIG1        0.0625
     56 H          55.4989  -35.0806   22.7211 H       1  LIG1        0.0618
     57 H          54.6035  -36.7235   24.3165 H       1  LIG1        0.0618
     58 H          52.4447  -37.8062   23.8874 H       1  LIG1        0.0618
     59 H          51.1682  -37.2573   21.8797 H       1  LIG1        0.0625
     60 H          42.9233  -44.1441   14.6004 H       1  LIG1        0.0308
     61 H          44.0692  -44.1719   13.2816 H       1  LIG1        0.0308
     62 H          43.6623  -42.6581   14.0536 H       1  LIG1        0.0308
     63 H          44.5872  -44.7872   19.3021 H       1  LIG1        0.0625
     64 H          45.2356  -45.7962   21.4385 H       1  LIG1        0.0618
     65 H          47.4858  -46.7133   21.7319 H       1  LIG1        0.0618
     66 H          49.1019  -46.6410   19.8909 H       1  LIG1        0.0618
     67 H          48.4783  -45.6366   17.7510 H       1  LIG1        0.0625
     68 H          47.2059  -40.7039   13.1904 H       1  LIG1        0.0700
     69 H          45.5608  -41.2268   13.3915 H       1  LIG1        0.0700
     70 H          46.8150  -43.2212   13.0334 H       1  LIG1        0.0362
     71 H          48.0745  -42.6780   14.1609 H       1  LIG1        0.0362
@<TRIPOS>BOND
     1     1     2    1
     2     1    11    1
     3     1    42    1
     4     2     3    1
     5     2    41    1
     6     3     4    1
     7     4     5   ar
     8     4     6   ar
     9     5     7   ar
    10     6     8   ar
    11     7     9   ar
    12     8     9   ar
    13     9    10    1
    14    10    37    1
    15    11    12   ar
    16    11    16   ar
    17    12    13   ar
    18    12    23    1
    19    13    14   ar
    20    14    15   ar
    21    15    16   ar
    22    17    18   ar
    23    17    22   ar
    24    17    23    1
    25    18    19   ar
    26    19    20   ar
    27    20    21   ar
    28    21    22   ar
    29    23    24    2
    30    25    26   ar
    31    25    29   ar
    32    26    27   ar
    33    26    31    1
    34    27    28   ar
    35    28    29   ar
    36    28    38    1
    37    29    30    1
    38    31    32   ar
    39    31    36   ar
    40    32    33   ar
    41    33    34   ar
    42    34    35   ar
    43    35    36   ar
    44    37    38    1
    45    39    41    2
    46    40    41    1
    47    40    43    1
    48     2    44    1
    49     3    45    1
    50     3    46    1
    51     5    47    1
    52     6    48    1
    53     7    49    1
    54     8    50    1
    55    13    51    1
    56    14    52    1
    57    15    53    1
    58    16    54    1
    59    18    55    1
    60    19    56    1
    61    20    57    1
    62    21    58    1
    63    22    59    1
    64    30    60    1
    65    30    61    1
    66    30    62    1
    67    32    63    1
    68    33    64    1
    69    34    65    1
    70    35    66    1
    71    36    67    1
    72    37    68    1
    73    37    69    1
    74    38    70    1
    75    38    71    1
