@<TRIPOS>MOLECULE
pose3.pdb
 71 75 0 0 0
SMALL
GASTEIGER

@<TRIPOS>ATOM
      1  N1        47.9590  -36.8280   17.4610 N.pl3   1  LIG1       -0.3306
      2  C1        48.4940  -35.4670   17.0850 C.3     1  LIG1        0.1223
      3  C2        50.0280  -35.3240   17.3300 C.3     1  LIG1        0.0012
      4  C3        50.4030  -34.8280   18.7310 C.ar    1  LIG1       -0.0449
      5  C4        50.3790  -33.4170   18.9860 C.ar    1  LIG1       -0.0550
      6  C5        50.7710  -35.7400   19.7750 C.ar    1  LIG1       -0.0550
      7  C6        50.7150  -32.9160   20.2580 C.ar    1  LIG1       -0.0197
      8  C7        51.1100  -35.2460   21.0550 C.ar    1  LIG1       -0.0197
      9  C8        51.0860  -33.8020   21.3180 C.ar    1  LIG1        0.1205
     10  O1        51.4010  -33.1650   22.5560 O.3     1  LIG1       -0.4916
     11  C9        46.6500  -37.4630   17.3220 C.ar    1  LIG1        0.0387
     12  C10       46.4320  -38.5410   16.3510 C.ar    1  LIG1        0.0431
     13  C11       45.1060  -39.1090   16.2850 C.ar    1  LIG1       -0.0491
     14  C12       44.0590  -38.6480   17.1180 C.ar    1  LIG1       -0.0610
     15  C13       44.2870  -37.6120   18.0420 C.ar    1  LIG1       -0.0600
     16  C14       45.5510  -37.0290   18.1480 C.ar    1  LIG1       -0.0401
     17  C15       48.3880  -40.3880   15.5030 C.ar    1  LIG1        0.0223
     18  C16       48.7420  -40.8710   16.8200 C.ar    1  LIG1       -0.0509
     19  C17       49.5590  -42.0280   16.9710 C.ar    1  LIG1       -0.0611
     20  C18       50.0320  -42.7150   15.8150 C.ar    1  LIG1       -0.0617
     21  C19       49.6900  -42.2460   14.5140 C.ar    1  LIG1       -0.0611
     22  C20       48.8770  -41.0960   14.3600 C.ar    1  LIG1       -0.0509
     23  C21       47.5120  -39.1530   15.3630 C.2     1  LIG1        0.1949
     24  O2        47.7450  -38.5120   14.3170 O.2     1  LIG1       -0.2866
     25  O3        54.1280  -36.6650   22.9310 O.2     1  LIG1       -0.4402
     26  C22       54.6900  -35.4710   22.4920 C.ar    1  LIG1        0.2276
     27  N2        53.9200  -34.4530   23.1010 N.ar    1  LIG1       -0.2136
     28  C23       52.9460  -35.0730   23.8540 C.ar    1  LIG1        0.0860
     29  C24       53.0430  -36.5080   23.7670 C.ar    1  LIG1        0.1258
     30  C25       52.1750  -37.5860   24.4270 C.3     1  LIG1       -0.0045
     31  C26       55.7740  -35.2830   21.6340 C.ar    1  LIG1        0.0369
     32  C27       55.8320  -34.1950   20.6870 C.ar    1  LIG1       -0.0495
     33  C28       56.9570  -34.0520   19.8340 C.ar    1  LIG1       -0.0610
     34  C29       58.0290  -34.9800   19.9090 C.ar    1  LIG1       -0.0617
     35  C30       57.9870  -36.0560   20.8370 C.ar    1  LIG1       -0.0610
     36  C31       56.8680  -36.2090   21.6930 C.ar    1  LIG1       -0.0495
     37  C32       50.7940  -33.6220   23.7900 C.3     1  LIG1        0.0951
     38  C33       51.9000  -34.2370   24.6690 C.3     1  LIG1        0.0272
     39  O4        47.8990  -33.9080   15.4210 O.2     1  LIG1       -0.2489
     40  O5        48.0540  -36.0420   14.7980 O.3     1  LIG1       -0.4793
     41  C34       48.1480  -35.1140   15.6660 C.2     1  LIG1        0.3255
     42  H1        48.6300  -37.4080   17.8890 H       1  LIG1        0.1469
     43  H2        47.3430  -36.0420   14.1880 H       1  LIG1        0.2951
     44 H          48.0106  -34.7702   17.7375 H       1  LIG1        0.0617
     45 H          50.4178  -34.6307   16.6143 H       1  LIG1        0.0337
     46 H          50.4451  -36.3044   17.2319 H       1  LIG1        0.0337
     47 H          50.1136  -32.7644   18.2319 H       1  LIG1        0.0621
     48 H          50.7882  -36.7555   19.5918 H       1  LIG1        0.0621
     49 H          50.6934  -31.8983   20.4276 H       1  LIG1        0.0654
     50 H          51.3750  -35.9019   21.8064 H       1  LIG1        0.0654
     51 H          44.9172  -39.8699   15.6138 H       1  LIG1        0.0625
     52 H          43.1220  -39.0746   17.0472 H       1  LIG1        0.0618
     53 H          43.5166  -37.2816   18.6440 H       1  LIG1        0.0618
     54 H          45.7019  -36.2713   18.8322 H       1  LIG1        0.0636
     55 H          48.3998  -40.3733   17.6568 H       1  LIG1        0.0625
     56 H          49.8075  -42.3675   17.9134 H       1  LIG1        0.0618
     57 H          50.6235  -43.5540   15.9208 H       1  LIG1        0.0618
     58 H          50.0359  -42.7461   13.6802 H       1  LIG1        0.0618
     59 H          48.6348  -40.7654   13.4129 H       1  LIG1        0.0625
     60 H          52.5318  -38.5541   24.1436 H       1  LIG1        0.0308
     61 H          51.1603  -37.4722   24.1071 H       1  LIG1        0.0308
     62 H          52.2271  -37.4840   25.4908 H       1  LIG1        0.0308
     63 H          55.0536  -33.5198   20.6302 H       1  LIG1        0.0625
     64 H          56.9960  -33.2728   19.1585 H       1  LIG1        0.0618
     65 H          58.8443  -34.8726   19.2855 H       1  LIG1        0.0618
     66 H          58.7709  -36.7253   20.8873 H       1  LIG1        0.0618
     67 H          56.8399  -36.9926   22.3640 H       1  LIG1        0.0625
     68 H          50.0488  -34.3594   23.5761 H       1  LIG1        0.0700
     69 H          50.3282  -32.8041   24.2989 H       1  LIG1        0.0700
     70 H          52.4151  -33.4446   25.1707 H       1  LIG1        0.0362
     71 H          51.4244  -34.9063   25.3551 H       1  LIG1        0.0362
@<TRIPOS>BOND
     1     1     2    1
     2     1    11    1
     3     1    42    1
     4     2     3    1
     5     2    41    1
     6     3     4    1
     7     4     5   ar
     8     4     6   ar
     9     5     7   ar
    10     6     8   ar
    11     7     9   ar
    12     8     9   ar
    13     9    10    1
    14    10    37    1
    15    11    12   ar
    16    11    16   ar
    17    12    13   ar
    18    12    23    1
    19    13    14   ar
    20    14    15   ar
    21    15    16   ar
    22    17    18   ar
    23    17    22   ar
    24    17    23    1
    25    18    19   ar
    26    19    20   ar
    27    20    21   ar
    28    21    22   ar
    29    23    24    2
    30    25    26   ar
    31    25    29   ar
    32    26    27   ar
    33    26    31    1
    34    27    28   ar
    35    28    29   ar
    36    28    38    1
    37    29    30    1
    38    31    32   ar
    39    31    36   ar
    40    32    33   ar
    41    33    34   ar
    42    34    35   ar
    43    35    36   ar
    44    37    38    1
    45    39    41    2
    46    40    41    1
    47    40    43    1
    48     2    44    1
    49     3    45    1
    50     3    46    1
    51     5    47    1
    52     6    48    1
    53     7    49    1
    54     8    50    1
    55    13    51    1
    56    14    52    1
    57    15    53    1
    58    16    54    1
    59    18    55    1
    60    19    56    1
    61    20    57    1
    62    21    58    1
    63    22    59    1
    64    30    60    1
    65    30    61    1
    66    30    62    1
    67    32    63    1
    68    33    64    1
    69    34    65    1
    70    35    66    1
    71    36    67    1
    72    37    68    1
    73    37    69    1
    74    38    70    1
    75    38    71    1
