@<TRIPOS>MOLECULE
pose2.pdb
 71 75 0 0 0
SMALL
GASTEIGER

@<TRIPOS>ATOM
      1  N1        47.9890  -35.6890   17.0530 N.pl3   1  LIG1       -0.3306
      2  C1        48.5940  -34.6510   16.1370 C.3     1  LIG1        0.1223
      3  C2        49.9530  -35.1020   15.5150 C.3     1  LIG1        0.0012
      4  C3        51.1910  -34.6290   16.2850 C.ar    1  LIG1       -0.0449
      5  C4        51.8340  -33.4180   15.8680 C.ar    1  LIG1       -0.0550
      6  C5        51.7080  -35.3690   17.4000 C.ar    1  LIG1       -0.0550
      7  C6        52.9730  -32.9440   16.5460 C.ar    1  LIG1       -0.0197
      8  C7        52.8510  -34.9030   18.0870 C.ar    1  LIG1       -0.0197
      9  C8        53.5110  -33.6620   17.6610 C.ar    1  LIG1        0.1205
     10  O1        54.6650  -33.0730   18.2590 O.3     1  LIG1       -0.4916
     11  C9        46.6600  -35.8560   17.6350 C.ar    1  LIG1        0.0387
     12  C10       45.9160  -37.1110   17.4730 C.ar    1  LIG1        0.0431
     13  C11       44.6100  -37.1850   18.0850 C.ar    1  LIG1       -0.0491
     14  C12       44.0660  -36.0970   18.8080 C.ar    1  LIG1       -0.0610
     15  C13       44.7940  -34.9010   18.9510 C.ar    1  LIG1       -0.0600
     16  C14       46.0630  -34.7780   18.3810 C.ar    1  LIG1       -0.0401
     17  C15       46.9900  -39.7060   17.2160 C.ar    1  LIG1        0.0223
     18  C16       48.4030  -39.9730   17.0570 C.ar    1  LIG1       -0.0509
     19  C17       48.9700  -41.1860   17.5430 C.ar    1  LIG1       -0.0611
     20  C18       48.1370  -42.1450   18.1900 C.ar    1  LIG1       -0.0617
     21  C19       46.7450  -41.8920   18.3500 C.ar    1  LIG1       -0.0611
     22  C20       46.1780  -40.6860   17.8680 C.ar    1  LIG1       -0.0509
     23  C21       46.4050  -38.4040   16.6940 C.2     1  LIG1        0.1949
     24  O2        46.3690  -38.3560   15.4470 O.2     1  LIG1       -0.2866
     25  O3        55.3200  -35.6100   23.1460 O.2     1  LIG1       -0.4402
     26  C22       54.0300  -35.1380   22.9270 C.ar    1  LIG1        0.2276
     27  N2        54.1440  -34.2410   21.8390 N.ar    1  LIG1       -0.2136
     28  C23       55.4720  -34.2120   21.4710 C.ar    1  LIG1        0.0860
     29  C24       56.2690  -35.0820   22.2970 C.ar    1  LIG1        0.1258
     30  C25       57.7780  -35.3580   22.2530 C.3     1  LIG1       -0.0045
     31  C26       52.8590  -35.4550   23.6150 C.ar    1  LIG1        0.0369
     32  C27       52.8690  -36.0540   24.9280 C.ar    1  LIG1       -0.0495
     33  C28       51.6460  -36.3600   25.5800 C.ar    1  LIG1       -0.0610
     34  C29       50.4100  -36.0790   24.9430 C.ar    1  LIG1       -0.0617
     35  C30       50.3830  -35.4880   23.6510 C.ar    1  LIG1       -0.0610
     36  C31       51.5980  -35.1790   22.9880 C.ar    1  LIG1       -0.0495
     37  C32       55.6630  -33.9040   18.9000 C.3     1  LIG1        0.0951
     38  C33       55.9630  -33.3080   20.2890 C.3     1  LIG1        0.0272
     39  O4        46.8190  -33.3210   15.3420 O.2     1  LIG1       -0.2489
     40  O5        47.6250  -34.8680   13.9540 O.3     1  LIG1       -0.4793
     41  C34       47.6300  -34.2380   15.0620 C.2     1  LIG1        0.3255
     42  H1        48.6210  -36.3980   17.3110 H       1  LIG1        0.1469
     43  H2        47.0290  -34.6170   13.2750 H       1  LIG1        0.2951
     44 H          48.8023  -33.8011   16.7528 H       1  LIG1        0.0617
     45 H          50.0101  -34.7144   14.5193 H       1  LIG1        0.0337
     46 H          49.9635  -36.1714   15.5481 H       1  LIG1        0.0337
     47 H          51.4592  -32.8895   15.0647 H       1  LIG1        0.0621
     48 H          51.2452  -36.2412   17.7000 H       1  LIG1        0.0621
     49 H          53.4248  -32.0696   16.2358 H       1  LIG1        0.0654
     50 H          53.2227  -35.4352   18.8892 H       1  LIG1        0.0654
     51 H          44.0597  -38.0531   17.9927 H       1  LIG1        0.0625
     52 H          43.1294  -36.1810   19.2332 H       1  LIG1        0.0618
     53 H          44.3887  -34.1122   19.4788 H       1  LIG1        0.0618
     54 H          46.5847  -33.8951   18.4968 H       1  LIG1        0.0636
     55 H          49.0052  -39.2788   16.5875 H       1  LIG1        0.0625
     56 H          49.9789  -41.3697   17.4273 H       1  LIG1        0.0618
     57 H          48.5440  -43.0250   18.5434 H       1  LIG1        0.0618
     58 H          46.1465  -42.5898   18.8189 H       1  LIG1        0.0618
     59 H          45.1678  -40.5131   17.9889 H       1  LIG1        0.0625
     60 H          58.0342  -36.0624   23.0166 H       1  LIG1        0.0308
     61 H          58.3124  -34.4454   22.4158 H       1  LIG1        0.0308
     62 H          58.0396  -35.7586   21.2959 H       1  LIG1        0.0308
     63 H          53.7667  -36.2601   25.3935 H       1  LIG1        0.0625
     64 H          51.6559  -36.7877   26.5192 H       1  LIG1        0.0618
     65 H          49.5240  -36.3054   25.4214 H       1  LIG1        0.0618
     66 H          49.4798  -35.2838   23.1954 H       1  LIG1        0.0618
     67 H          51.5752  -34.7528   22.0484 H       1  LIG1        0.0625
     68 H          56.5561  -33.9178   18.3108 H       1  LIG1        0.0700
     69 H          55.3030  -34.9069   18.9972 H       1  LIG1        0.0700
     70 H          57.0208  -33.1748   20.3801 H       1  LIG1        0.0362
     71 H          55.4324  -32.3813   20.3574 H       1  LIG1        0.0362
@<TRIPOS>BOND
     1     1     2    1
     2     1    11    1
     3     1    42    1
     4     2     3    1
     5     2    41    1
     6     3     4    1
     7     4     5   ar
     8     4     6   ar
     9     5     7   ar
    10     6     8   ar
    11     7     9   ar
    12     8     9   ar
    13     9    10    1
    14    10    37    1
    15    11    12   ar
    16    11    16   ar
    17    12    13   ar
    18    12    23    1
    19    13    14   ar
    20    14    15   ar
    21    15    16   ar
    22    17    18   ar
    23    17    22   ar
    24    17    23    1
    25    18    19   ar
    26    19    20   ar
    27    20    21   ar
    28    21    22   ar
    29    23    24    2
    30    25    26   ar
    31    25    29   ar
    32    26    27   ar
    33    26    31    1
    34    27    28   ar
    35    28    29   ar
    36    28    38    1
    37    29    30    1
    38    31    32   ar
    39    31    36   ar
    40    32    33   ar
    41    33    34   ar
    42    34    35   ar
    43    35    36   ar
    44    37    38    1
    45    39    41    2
    46    40    41    1
    47    40    43    1
    48     2    44    1
    49     3    45    1
    50     3    46    1
    51     5    47    1
    52     6    48    1
    53     7    49    1
    54     8    50    1
    55    13    51    1
    56    14    52    1
    57    15    53    1
    58    16    54    1
    59    18    55    1
    60    19    56    1
    61    20    57    1
    62    21    58    1
    63    22    59    1
    64    30    60    1
    65    30    61    1
    66    30    62    1
    67    32    63    1
    68    33    64    1
    69    34    65    1
    70    35    66    1
    71    36    67    1
    72    37    68    1
    73    37    69    1
    74    38    70    1
    75    38    71    1
