@<TRIPOS>MOLECULE
pose0.pdb
 71 75 0 0 0
SMALL
GASTEIGER

@<TRIPOS>ATOM
      1  N1        47.1760  -40.1300   15.0430 N.pl3   1  LIG1       -0.3306
      2  C1        48.2660  -39.7490   14.0700 C.3     1  LIG1        0.1223
      3  C2        48.3590  -38.2100   13.8260 C.3     1  LIG1        0.0012
      4  C3        47.8470  -37.3530   14.9900 C.ar    1  LIG1       -0.0449
      5  C4        48.7770  -36.9550   16.0060 C.ar    1  LIG1       -0.0550
      6  C5        46.4740  -36.9510   15.0760 C.ar    1  LIG1       -0.0550
      7  C6        48.3530  -36.1680   17.0930 C.ar    1  LIG1       -0.0197
      8  C7        46.0370  -36.1600   16.1630 C.ar    1  LIG1       -0.0197
      9  C8        46.9880  -35.7510   17.2040 C.ar    1  LIG1        0.1205
     10  O1        46.6910  -34.9560   18.3520 O.3     1  LIG1       -0.4916
     11  C9        46.7990  -41.3890   15.6820 C.ar    1  LIG1        0.0387
     12  C10       46.5100  -41.4520   17.1190 C.ar    1  LIG1        0.0431
     13  C11       46.1440  -42.7390   17.6610 C.ar    1  LIG1       -0.0491
     14  C12       46.0690  -43.8930   16.8460 C.ar    1  LIG1       -0.0610
     15  C13       46.3510  -43.8140   15.4700 C.ar    1  LIG1       -0.0600
     16  C14       46.7080  -42.5920   14.8940 C.ar    1  LIG1       -0.0401
     17  C15       45.4230  -39.4610   18.7970 C.ar    1  LIG1        0.0223
     18  C16       44.0770  -39.9870   18.7650 C.ar    1  LIG1       -0.0509
     19  C17       43.0050  -39.2730   19.3730 C.ar    1  LIG1       -0.0611
     20  C18       43.2640  -38.0280   20.0200 C.ar    1  LIG1       -0.0617
     21  C19       44.5870  -37.5020   20.0550 C.ar    1  LIG1       -0.0611
     22  C20       45.6540  -38.2100   19.4510 C.ar    1  LIG1       -0.0509
     23  C21       46.5540  -40.2410   18.1430 C.2     1  LIG1        0.1949
     24  O2        47.6820  -39.7950   18.4400 O.2     1  LIG1       -0.2866
     25  O3        50.2220  -34.1000   23.0950 O.2     1  LIG1       -0.4402
     26  C22       51.0660  -34.6000   22.1090 C.ar    1  LIG1        0.2276
     27  N2        50.2080  -35.0170   21.0640 N.ar    1  LIG1       -0.2136
     28  C23       48.9160  -34.7590   21.4700 C.ar    1  LIG1        0.0860
     29  C24       48.8810  -34.1700   22.7840 C.ar    1  LIG1        0.1258
     30  C25       47.6760  -33.7290   23.6240 C.3     1  LIG1       -0.0045
     31  C26       52.4580  -34.6910   22.1180 C.ar    1  LIG1        0.0369
     32  C27       53.2000  -35.3210   21.0520 C.ar    1  LIG1       -0.0495
     33  C28       54.6160  -35.3910   21.1140 C.ar    1  LIG1       -0.0610
     34  C29       55.3070  -34.8420   22.2250 C.ar    1  LIG1       -0.0617
     35  C30       54.5910  -34.2170   23.2820 C.ar    1  LIG1       -0.0610
     36  C31       53.1770  -34.1430   23.2320 C.ar    1  LIG1       -0.0495
     37  C32       47.7600  -34.4210   19.1700 C.3     1  LIG1        0.0951
     38  C33       47.6960  -35.1060   20.5490 C.3     1  LIG1        0.0272
     39  O4        50.1940  -39.7040   15.4230 O.2     1  LIG1       -0.2489
     40  O5        50.0930  -41.2890   13.8600 O.3     1  LIG1       -0.4793
     41  C34       49.5980  -40.3000   14.4940 C.2     1  LIG1        0.3255
     42  H1        46.6010  -39.3740   15.3010 H       1  LIG1        0.1469
     43  H2        51.0150  -41.4520   13.8930 H       1  LIG1        0.2951
     44 H          47.9940  -40.1940   13.1357 H       1  LIG1        0.0617
     45 H          47.7817  -37.9733   12.9567 H       1  LIG1        0.0337
     46 H          49.3979  -37.9808   13.7113 H       1  LIG1        0.0337
     47 H          49.7644  -37.2477   15.9398 H       1  LIG1        0.0621
     48 H          45.8049  -37.2388   14.3449 H       1  LIG1        0.0621
     49 H          49.0329  -35.8887   17.8174 H       1  LIG1        0.0654
     50 H          45.0486  -35.8698   16.2249 H       1  LIG1        0.0654
     51 H          45.9318  -42.8192   18.6678 H       1  LIG1        0.0625
     52 H          45.8056  -44.7991   17.2638 H       1  LIG1        0.0618
     53 H          46.2940  -44.6615   14.8840 H       1  LIG1        0.0618
     54 H          46.9108  -42.5502   13.8830 H       1  LIG1        0.0636
     55 H          43.8911  -40.8880   18.2974 H       1  LIG1        0.0625
     56 H          42.0463  -39.6540   19.3457 H       1  LIG1        0.0618
     57 H          42.4910  -37.5076   20.4635 H       1  LIG1        0.0618
     58 H          44.7689  -36.6003   20.5229 H       1  LIG1        0.0618
     59 H          46.6087  -37.8193   19.4829 H       1  LIG1        0.0625
     60 H          48.0178  -33.3310   24.5565 H       1  LIG1        0.0308
     61 H          47.0413  -34.5708   23.8067 H       1  LIG1        0.0308
     62 H          47.1282  -32.9775   23.0948 H       1  LIG1        0.0308
     63 H          52.6996  -35.7214   20.2431 H       1  LIG1        0.0625
     64 H          55.1437  -35.8417   20.3502 H       1  LIG1        0.0618
     65 H          56.3367  -34.8968   22.2660 H       1  LIG1        0.0618
     66 H          55.1008  -33.8174   24.0854 H       1  LIG1        0.0618
     67 H          52.6603  -33.6915   24.0028 H       1  LIG1        0.0625
     68 H          47.6356  -33.3644   19.2837 H       1  LIG1        0.0700
     69 H          48.7076  -34.6047   18.7083 H       1  LIG1        0.0700
     70 H          46.7988  -34.7944   21.0418 H       1  LIG1        0.0362
     71 H          47.7166  -36.1623   20.3798 H       1  LIG1        0.0362
@<TRIPOS>BOND
     1     1     2    1
     2     1    11    1
     3     1    42    1
     4     2     3    1
     5     2    41    1
     6     3     4    1
     7     4     5   ar
     8     4     6   ar
     9     5     7   ar
    10     6     8   ar
    11     7     9   ar
    12     8     9   ar
    13     9    10    1
    14    10    37    1
    15    11    12   ar
    16    11    16   ar
    17    12    13   ar
    18    12    23    1
    19    13    14   ar
    20    14    15   ar
    21    15    16   ar
    22    17    18   ar
    23    17    22   ar
    24    17    23    1
    25    18    19   ar
    26    19    20   ar
    27    20    21   ar
    28    21    22   ar
    29    23    24    2
    30    25    26   ar
    31    25    29   ar
    32    26    27   ar
    33    26    31    1
    34    27    28   ar
    35    28    29   ar
    36    28    38    1
    37    29    30    1
    38    31    32   ar
    39    31    36   ar
    40    32    33   ar
    41    33    34   ar
    42    34    35   ar
    43    35    36   ar
    44    37    38    1
    45    39    41    2
    46    40    41    1
    47    40    43    1
    48     2    44    1
    49     3    45    1
    50     3    46    1
    51     5    47    1
    52     6    48    1
    53     7    49    1
    54     8    50    1
    55    13    51    1
    56    14    52    1
    57    15    53    1
    58    16    54    1
    59    18    55    1
    60    19    56    1
    61    20    57    1
    62    21    58    1
    63    22    59    1
    64    30    60    1
    65    30    61    1
    66    30    62    1
    67    32    63    1
    68    33    64    1
    69    34    65    1
    70    35    66    1
    71    36    67    1
    72    37    68    1
    73    37    69    1
    74    38    70    1
    75    38    71    1
