@<TRIPOS>MOLECULE
pose6.pdb
 71 75 0 0 0
SMALL
GASTEIGER

@<TRIPOS>ATOM
      1  N1        47.4280  -35.5390   14.5110 N.pl3   1  LIG1       -0.3306
      2  C1        47.8970  -34.1410   14.1820 C.3     1  LIG1        0.1223
      3  C2        47.8670  -33.1800   15.4120 C.3     1  LIG1        0.0012
      4  C3        48.6100  -33.7070   16.6450 C.ar    1  LIG1       -0.0449
      5  C4        48.2830  -35.0150   17.1330 C.ar    1  LIG1       -0.0550
      6  C5        49.6110  -32.9230   17.3070 C.ar    1  LIG1       -0.0550
      7  C6        48.9400  -35.5400   18.2620 C.ar    1  LIG1       -0.0197
      8  C7        50.2770  -33.4410   18.4420 C.ar    1  LIG1       -0.0197
      9  C8        49.9440  -34.7800   18.9420 C.ar    1  LIG1        0.1205
     10  O1        50.5320  -35.4290   20.0700 O.3     1  LIG1       -0.4916
     11  C9        47.1570  -36.7200   13.6960 C.ar    1  LIG1        0.0387
     12  C10       46.8660  -38.0170   14.3170 C.ar    1  LIG1        0.0431
     13  C11       46.6070  -39.1280   13.4320 C.ar    1  LIG1       -0.0491
     14  C12       46.6350  -38.9780   12.0250 C.ar    1  LIG1       -0.0610
     15  C13       46.9170  -37.7270   11.4470 C.ar    1  LIG1       -0.0600
     16  C14       47.1720  -36.6190   12.2580 C.ar    1  LIG1       -0.0401
     17  C15       45.9820  -37.6670   16.9740 C.ar    1  LIG1        0.0223
     18  C16       44.5550  -37.5040   16.8060 C.ar    1  LIG1       -0.0509
     19  C17       43.7710  -36.8940   17.8280 C.ar    1  LIG1       -0.0611
     20  C18       44.4000  -36.4410   19.0240 C.ar    1  LIG1       -0.0617
     21  C19       45.8050  -36.5960   19.1970 C.ar    1  LIG1       -0.0611
     22  C20       46.5870  -37.2030   18.1840 C.ar    1  LIG1       -0.0509
     23  C21       46.8010  -38.3240   15.8730 C.2     1  LIG1        0.1949
     24  O2        47.5740  -39.2030   16.3060 O.2     1  LIG1       -0.2866
     25  O3        54.2200  -36.2600   22.1380 O.2     1  LIG1       -0.4402
     26  C22       54.0960  -35.0760   21.4200 C.ar    1  LIG1        0.2276
     27  N2        52.7210  -34.7490   21.4810 N.ar    1  LIG1       -0.2136
     28  C23       52.0980  -35.7380   22.2120 C.ar    1  LIG1        0.0860
     29  C24       53.0350  -36.7400   22.6510 C.ar    1  LIG1        0.1258
     30  C25       52.7890  -38.0100   23.4760 C.3     1  LIG1       -0.0045
     31  C26       55.0870  -34.3460   20.7640 C.ar    1  LIG1        0.0369
     32  C27       56.4440  -34.8220   20.6390 C.ar    1  LIG1       -0.0495
     33  C28       57.4150  -34.0360   19.9650 C.ar    1  LIG1       -0.0610
     34  C29       57.0550  -32.7780   19.4150 C.ar    1  LIG1       -0.0617
     35  C30       55.7230  -32.2960   19.5290 C.ar    1  LIG1       -0.0610
     36  C31       54.7450  -33.0720   20.2000 C.ar    1  LIG1       -0.0495
     37  C32       49.7120  -35.8350   21.1920 C.3     1  LIG1        0.0951
     38  C33       50.5540  -35.6970   22.4760 C.3     1  LIG1        0.0272
     39  O4        50.0770  -35.0100   13.9690 O.2     1  LIG1       -0.2489
     40  O5        49.5540  -33.2660   12.6840 O.3     1  LIG1       -0.4793
     41  C34       49.2610  -34.1520   13.5510 C.2     1  LIG1        0.3255
     42  H1        47.2750  -35.6830   15.4720 H       1  LIG1        0.1469
     43  H2        49.7480  -33.5180   11.8030 H       1  LIG1        0.2951
     44 H          47.1958  -33.7563   13.4713 H       1  LIG1        0.0617
     45 H          46.8451  -33.0142   15.6824 H       1  LIG1        0.0337
     46 H          48.3694  -32.2841   15.1122 H       1  LIG1        0.0337
     47 H          47.5612  -35.5753   16.6534 H       1  LIG1        0.0621
     48 H          49.8454  -31.9814   16.9557 H       1  LIG1        0.0621
     49 H          48.6950  -36.4828   18.6028 H       1  LIG1        0.0654
     50 H          50.9977  -32.8770   18.9190 H       1  LIG1        0.0654
     51 H          46.3963  -40.0543   13.8353 H       1  LIG1        0.0625
     52 H          46.4473  -39.7919   11.4190 H       1  LIG1        0.0618
     53 H          46.9355  -37.6276   10.4200 H       1  LIG1        0.0618
     54 H          47.3757  -35.7079   11.8182 H       1  LIG1        0.0636
     55 H          44.1008  -37.8319   15.9393 H       1  LIG1        0.0625
     56 H          42.7529  -36.7809   17.7026 H       1  LIG1        0.0618
     57 H          43.8357  -35.9994   19.7667 H       1  LIG1        0.0618
     58 H          46.2554  -36.2646   20.0644 H       1  LIG1        0.0618
     59 H          47.6042  -37.3116   18.3205 H       1  LIG1        0.0625
     60 H          53.7148  -38.5269   23.6196 H       1  LIG1        0.0308
     61 H          52.1026  -38.6454   22.9565 H       1  LIG1        0.0308
     62 H          52.3781  -37.7433   24.4273 H       1  LIG1        0.0308
     63 H          56.7086  -35.7352   21.0403 H       1  LIG1        0.0625
     64 H          58.3839  -34.3796   19.8748 H       1  LIG1        0.0618
     65 H          57.7657  -32.2092   18.9288 H       1  LIG1        0.0618
     66 H          55.4681  -31.3818   19.1236 H       1  LIG1        0.0618
     67 H          53.7793  -32.7178   20.2835 H       1  LIG1        0.0625
     68 H          49.4050  -36.8524   21.0673 H       1  LIG1        0.0700
     69 H          48.8384  -35.2203   21.2540 H       1  LIG1        0.0700
     70 H          50.3136  -34.7638   22.9411 H       1  LIG1        0.0362
     71 H          50.3171  -36.5321   23.1016 H       1  LIG1        0.0362
@<TRIPOS>BOND
     1     1     2    1
     2     1    11    1
     3     1    42    1
     4     2     3    1
     5     2    41    1
     6     3     4    1
     7     4     5   ar
     8     4     6   ar
     9     5     7   ar
    10     6     8   ar
    11     7     9   ar
    12     8     9   ar
    13     9    10    1
    14    10    37    1
    15    11    12   ar
    16    11    16   ar
    17    12    13   ar
    18    12    23    1
    19    13    14   ar
    20    14    15   ar
    21    15    16   ar
    22    17    18   ar
    23    17    22   ar
    24    17    23    1
    25    18    19   ar
    26    19    20   ar
    27    20    21   ar
    28    21    22   ar
    29    23    24    2
    30    25    26   ar
    31    25    29   ar
    32    26    27   ar
    33    26    31    1
    34    27    28   ar
    35    28    29   ar
    36    28    38    1
    37    29    30    1
    38    31    32   ar
    39    31    36   ar
    40    32    33   ar
    41    33    34   ar
    42    34    35   ar
    43    35    36   ar
    44    37    38    1
    45    39    41    2
    46    40    41    1
    47    40    43    1
    48     2    44    1
    49     3    45    1
    50     3    46    1
    51     5    47    1
    52     6    48    1
    53     7    49    1
    54     8    50    1
    55    13    51    1
    56    14    52    1
    57    15    53    1
    58    16    54    1
    59    18    55    1
    60    19    56    1
    61    20    57    1
    62    21    58    1
    63    22    59    1
    64    30    60    1
    65    30    61    1
    66    30    62    1
    67    32    63    1
    68    33    64    1
    69    34    65    1
    70    35    66    1
    71    36    67    1
    72    37    68    1
    73    37    69    1
    74    38    70    1
    75    38    71    1
