REMARK  9 active torsions:
REMARK  status: ('A' for Active; 'I' for Inactive)
REMARK    1  A    between atoms: C9_2  and  C8_3 
REMARK    2  A    between atoms: C8_3  and  C11_4 
REMARK    3  A    between atoms: C7_10  and  C1_11 
REMARK    4  A    between atoms: C7_10  and  C17_19 
REMARK    5  A    between atoms: C4_14  and  O4_15 
REMARK    6  A    between atoms: C20_22  and  O20_23 
REMARK    7  A    between atoms: O20_23  and  C23_24 
REMARK    8  A    between atoms: C23_24  and  C24_25 
REMARK    9  A    between atoms: C24_25  and  N24_26 
ROOT
HETATM    1  C8  OHT A 600      67.355  33.698  71.598  1.00 25.22    -0.036 C 
HETATM    2  C7  OHT A 600      68.092  34.660  72.228  1.00 24.63    -0.009 C 
ENDROOT
BRANCH   2   3
HETATM    3  C1  OHT A 600      68.673  35.865  71.530  1.00 24.14    -0.024 A 
HETATM    4  C2  OHT A 600      67.912  36.636  70.597  1.00 26.17     0.015 A 
HETATM    5  C3  OHT A 600      68.493  37.719  69.923  1.00 26.36     0.037 A 
HETATM    6  C4  OHT A 600      69.840  38.043  70.175  1.00 29.58     0.065 A 
HETATM    7  C5  OHT A 600      70.601  37.290  71.098  1.00 27.04     0.037 A 
HETATM    8  C6  OHT A 600      70.007  36.220  71.754  1.00 25.11     0.015 A 
BRANCH   6   9
HETATM    9  O4  OHT A 600      70.388  39.088  69.493  1.00 28.95    -0.361 OA
ATOM     10  H4  OHT A 600      70.278  39.962  69.848  1.00  0.00     0.217 HD
ENDBRANCH   6   9
ENDBRANCH   2   3
BRANCH   2  11
HETATM   11  C17 OHT A 600      68.405  34.602  73.659  1.00 26.54    -0.024 A 
HETATM   12  C18 OHT A 600      69.440  33.810  74.149  1.00 26.76     0.015 A 
HETATM   13  C19 OHT A 600      69.763  33.763  75.476  1.00 28.12     0.037 A 
HETATM   14  C20 OHT A 600      69.043  34.528  76.380  1.00 28.11     0.068 A 
HETATM   15  C21 OHT A 600      67.988  35.337  75.922  1.00 26.98     0.037 A 
HETATM   16  C22 OHT A 600      67.686  35.366  74.589  1.00 27.89     0.015 A 
BRANCH  14  17
HETATM   17  O20 OHT A 600      69.322  34.567  77.716  1.00 31.97    -0.349 OA
BRANCH  17  18
HETATM   18  C23 OHT A 600      69.735  35.789  78.320  1.00 40.10     0.206 C 
BRANCH  18  19
HETATM   19  C24 OHT A 600      68.658  36.167  79.301  1.00 45.21     0.297 C 
BRANCH  19  20
HETATM   20  N24 OHT A 600      68.790  37.501  79.818  1.00 50.11     0.082 N 
HETATM   21  C25 OHT A 600      69.827  37.582  80.847  1.00 52.05     0.309 C 
HETATM   22  C26 OHT A 600      69.155  38.415  78.729  1.00 52.76     0.309 C 
ENDBRANCH  19  20
ENDBRANCH  18  19
ENDBRANCH  17  18
ENDBRANCH  14  17
ENDBRANCH   2  11
BRANCH   1  23
HETATM   23  C9  OHT A 600      67.303  33.565  70.090  1.00 23.31     0.036 C 
HETATM   24  C10 OHT A 600      66.019  32.939  69.619  1.00 26.22     0.010 C 
ENDBRANCH   1  23
BRANCH   1  25
HETATM   25  C11 OHT A 600      66.528  32.683  72.319  1.00 27.85    -0.029 A 
HETATM   26  C16 OHT A 600      66.896  31.321  72.316  1.00 28.59     0.012 A 
HETATM   27  C15 OHT A 600      66.150  30.382  73.030  1.00 30.60     0.001 A 
HETATM   28  C14 OHT A 600      65.035  30.760  73.752  1.00 30.44     0.000 A 
HETATM   29  C13 OHT A 600      64.661  32.083  73.765  1.00 31.30     0.001 A 
HETATM   30  C12 OHT A 600      65.402  33.034  73.055  1.00 28.04     0.012 A 
ENDBRANCH   1  25
TORSDOF 9
