REMARK  9 active torsions:
REMARK  status: ('A' for Active; 'I' for Inactive)
REMARK    1  A    between atoms: C9_2  and  C8_3 
REMARK    2  A    between atoms: C8_3  and  C11_4 
REMARK    3  A    between atoms: C7_10  and  C1_11 
REMARK    4  A    between atoms: C7_10  and  C17_19 
REMARK    5  A    between atoms: C4_14  and  O4_15 
REMARK    6  A    between atoms: C20_22  and  O20_23 
REMARK    7  A    between atoms: O20_23  and  C23_24 
REMARK    8  A    between atoms: C23_24  and  C24_25 
REMARK    9  A    between atoms: C24_25  and  N24_26 
ROOT
HETATM    1  C8  OHT A 600      67.498  33.513  71.662  1.00 25.22    -0.036 C 
HETATM    2  C7  OHT A 600      68.180  34.538  72.253  1.00 24.63    -0.009 C 
ENDROOT
BRANCH   2   3
HETATM    3  C1  OHT A 600      68.750  35.713  71.497  1.00 24.14    -0.024 A 
HETATM    4  C2  OHT A 600      70.154  35.987  71.477  1.00 26.17     0.015 A 
HETATM    5  C3  OHT A 600      70.652  37.115  70.811  1.00 26.36     0.037 A 
HETATM    6  C4  OHT A 600      69.754  37.981  70.159  1.00 29.58     0.065 A 
HETATM    7  C5  OHT A 600      68.365  37.719  70.170  1.00 27.04     0.037 A 
HETATM    8  C6  OHT A 600      67.891  36.596  70.837  1.00 25.11     0.015 A 
BRANCH   6   9
HETATM    9  O4  OHT A 600      70.260  39.082  69.535  1.00 28.95    -0.361 OA
ATOM     10  H4  OHT A 600      70.265  39.904  70.011  1.00  0.00     0.217 HD
ENDBRANCH   6   9
ENDBRANCH   2   3
BRANCH   2  11
HETATM   11  C17 OHT A 600      68.438  34.585  73.695  1.00 26.54    -0.024 A 
HETATM   12  C18 OHT A 600      69.519  33.916  74.265  1.00 26.76     0.015 A 
HETATM   13  C19 OHT A 600      69.790  33.968  75.604  1.00 28.12     0.037 A 
HETATM   14  C20 OHT A 600      68.970  34.712  76.437  1.00 28.11     0.068 A 
HETATM   15  C21 OHT A 600      67.868  35.398  75.896  1.00 26.98     0.037 A 
HETATM   16  C22 OHT A 600      67.619  35.329  74.554  1.00 27.89     0.015 A 
BRANCH  14  17
HETATM   17  O20 OHT A 600      69.190  34.847  77.777  1.00 31.97    -0.349 OA
BRANCH  17  18
HETATM   18  C23 OHT A 600      70.088  35.846  78.252  1.00 40.10     0.206 C 
BRANCH  18  19
HETATM   19  C24 OHT A 600      69.238  36.985  78.748  1.00 45.21     0.297 C 
BRANCH  19  20
HETATM   20  N24 OHT A 600      69.994  38.054  79.341  1.00 50.11     0.082 N 
HETATM   21  C25 OHT A 600      69.148  39.207  79.652  1.00 52.05     0.309 C 
HETATM   22  C26 OHT A 600      70.606  37.587  80.591  1.00 52.76     0.309 C 
ENDBRANCH  19  20
ENDBRANCH  18  19
ENDBRANCH  17  18
ENDBRANCH  14  17
ENDBRANCH   2  11
BRANCH   1  23
HETATM   23  C9  OHT A 600      67.509  33.279  70.165  1.00 23.31     0.036 C 
HETATM   24  C10 OHT A 600      67.780  31.841  69.816  1.00 26.22     0.010 C 
ENDBRANCH   1  23
BRANCH   1  25
HETATM   25  C11 OHT A 600      66.675  32.520  72.418  1.00 27.85    -0.029 A 
HETATM   26  C16 OHT A 600      65.396  32.144  71.955  1.00 28.59     0.012 A 
HETATM   27  C15 OHT A 600      64.650  31.181  72.635  1.00 30.60     0.001 A 
HETATM   28  C14 OHT A 600      65.141  30.576  73.776  1.00 30.44     0.000 A 
HETATM   29  C13 OHT A 600      66.384  30.931  74.241  1.00 31.30     0.001 A 
HETATM   30  C12 OHT A 600      67.143  31.894  73.567  1.00 28.04     0.012 A 
ENDBRANCH   1  25
TORSDOF 9
