REMARK  9 active torsions:
REMARK  status: ('A' for Active; 'I' for Inactive)
REMARK    1  A    between atoms: C9_2  and  C8_3 
REMARK    2  A    between atoms: C8_3  and  C11_4 
REMARK    3  A    between atoms: C7_10  and  C1_11 
REMARK    4  A    between atoms: C7_10  and  C17_19 
REMARK    5  A    between atoms: C4_14  and  O4_15 
REMARK    6  A    between atoms: C20_22  and  O20_23 
REMARK    7  A    between atoms: O20_23  and  C23_24 
REMARK    8  A    between atoms: C23_24  and  C24_25 
REMARK    9  A    between atoms: C24_25  and  N24_26 
ROOT
HETATM    1  C8  OHT A 600      67.579  33.580  71.800  1.00 25.22    -0.036 C 
HETATM    2  C7  OHT A 600      68.278  34.604  72.372  1.00 24.63    -0.009 C 
ENDROOT
BRANCH   2   3
HETATM    3  C1  OHT A 600      68.839  35.773  71.600  1.00 24.14    -0.024 A 
HETATM    4  C2  OHT A 600      70.149  36.286  71.855  1.00 26.17     0.015 A 
HETATM    5  C3  OHT A 600      70.626  37.406  71.159  1.00 26.36     0.037 A 
HETATM    6  C4  OHT A 600      69.798  38.025  70.203  1.00 29.58     0.065 A 
HETATM    7  C5  OHT A 600      68.502  37.525  69.941  1.00 27.04     0.037 A 
HETATM    8  C6  OHT A 600      68.048  36.415  70.642  1.00 25.11     0.015 A 
BRANCH   6   9
HETATM    9  O4  OHT A 600      70.275  39.125  69.555  1.00 28.95    -0.361 OA
ATOM     10  H4  OHT A 600      70.241  39.960  70.005  1.00  0.00     0.217 HD
ENDBRANCH   6   9
ENDBRANCH   2   3
BRANCH   2  11
HETATM   11  C17 OHT A 600      68.569  34.654  73.808  1.00 26.54    -0.024 A 
HETATM   12  C18 OHT A 600      67.787  35.402  74.686  1.00 26.76     0.015 A 
HETATM   13  C19 OHT A 600      68.028  35.442  76.030  1.00 28.12     0.037 A 
HETATM   14  C20 OHT A 600      69.083  34.713  76.555  1.00 28.11     0.068 A 
HETATM   15  C21 OHT A 600      69.895  33.949  75.699  1.00 26.98     0.037 A 
HETATM   16  C22 OHT A 600      69.633  33.927  74.358  1.00 27.89     0.015 A 
BRANCH  14  17
HETATM   17  O20 OHT A 600      69.369  34.668  77.890  1.00 31.97    -0.349 OA
BRANCH  17  18
HETATM   18  C23 OHT A 600      68.432  35.175  78.835  1.00 40.10     0.206 C 
BRANCH  18  19
HETATM   19  C24 OHT A 600      69.229  35.931  79.864  1.00 45.21     0.297 C 
BRANCH  19  20
HETATM   20  N24 OHT A 600      69.827  37.137  79.359  1.00 50.11     0.082 N 
HETATM   21  C25 OHT A 600      68.818  38.141  79.019  1.00 52.05     0.309 C 
HETATM   22  C26 OHT A 600      70.714  37.709  80.378  1.00 52.76     0.309 C 
ENDBRANCH  19  20
ENDBRANCH  18  19
ENDBRANCH  17  18
ENDBRANCH  14  17
ENDBRANCH   2  11
BRANCH   1  23
HETATM   23  C9  OHT A 600      67.556  33.341  70.305  1.00 23.31     0.036 C 
HETATM   24  C10 OHT A 600      66.155  33.245  69.765  1.00 26.22     0.010 C 
ENDBRANCH   1  23
BRANCH   1  25
HETATM   25  C11 OHT A 600      66.767  32.595  72.577  1.00 27.85    -0.029 A 
HETATM   26  C16 OHT A 600      67.379  31.477  73.183  1.00 28.59     0.012 A 
HETATM   27  C15 OHT A 600      66.628  30.585  73.949  1.00 30.60     0.001 A 
HETATM   28  C14 OHT A 600      65.271  30.771  74.131  1.00 30.44     0.000 A 
HETATM   29  C13 OHT A 600      64.659  31.854  73.547  1.00 31.30     0.001 A 
HETATM   30  C12 OHT A 600      65.401  32.757  72.778  1.00 28.04     0.012 A 
ENDBRANCH   1  25
TORSDOF 9
