REMARK  9 active torsions:
REMARK  status: ('A' for Active; 'I' for Inactive)
REMARK    1  A    between atoms: C9_2  and  C8_3 
REMARK    2  A    between atoms: C8_3  and  C11_4 
REMARK    3  A    between atoms: C7_10  and  C1_11 
REMARK    4  A    between atoms: C7_10  and  C17_19 
REMARK    5  A    between atoms: C4_14  and  O4_15 
REMARK    6  A    between atoms: C20_22  and  O20_23 
REMARK    7  A    between atoms: O20_23  and  C23_24 
REMARK    8  A    between atoms: C23_24  and  C24_25 
REMARK    9  A    between atoms: C24_25  and  N24_26 
ROOT
HETATM    1  C8  OHT A 600      67.638  33.424  71.896  1.00 25.22    -0.036 C 
HETATM    2  C7  OHT A 600      68.314  34.464  72.466  1.00 24.63    -0.009 C 
ENDROOT
BRANCH   2   3
HETATM    3  C1  OHT A 600      68.849  35.644  71.692  1.00 24.14    -0.024 A 
HETATM    4  C2  OHT A 600      70.195  36.100  71.849  1.00 26.17     0.015 A 
HETATM    5  C3  OHT A 600      70.651  37.231  71.156  1.00 26.36     0.037 A 
HETATM    6  C4  OHT A 600      69.767  37.916  70.301  1.00 29.58     0.065 A 
HETATM    7  C5  OHT A 600      68.435  37.472  70.136  1.00 27.04     0.037 A 
HETATM    8  C6  OHT A 600      68.003  36.350  70.832  1.00 25.11     0.015 A 
BRANCH   6   9
HETATM    9  O4  OHT A 600      70.228  39.024  69.654  1.00 28.95    -0.361 OA
ATOM     10  H4  OHT A 600      70.839  39.588  70.112  1.00  0.00     0.217 HD
ENDBRANCH   6   9
ENDBRANCH   2   3
BRANCH   2  11
HETATM   11  C17 OHT A 600      68.602  34.525  73.902  1.00 26.54    -0.024 A 
HETATM   12  C18 OHT A 600      67.777  35.218  74.785  1.00 26.76     0.015 A 
HETATM   13  C19 OHT A 600      68.016  35.265  76.129  1.00 28.12     0.037 A 
HETATM   14  C20 OHT A 600      69.115  34.600  76.650  1.00 28.11     0.068 A 
HETATM   15  C21 OHT A 600      69.971  33.892  75.789  1.00 26.98     0.037 A 
HETATM   16  C22 OHT A 600      69.710  33.861  74.448  1.00 27.89     0.015 A 
BRANCH  14  17
HETATM   17  O20 OHT A 600      69.405  34.565  77.983  1.00 31.97    -0.349 OA
BRANCH  17  18
HETATM   18  C23 OHT A 600      70.125  35.638  78.582  1.00 40.10     0.206 C 
BRANCH  18  19
HETATM   19  C24 OHT A 600      69.109  36.689  78.939  1.00 45.21     0.297 C 
BRANCH  19  20
HETATM   20  N24 OHT A 600      69.677  37.992  79.152  1.00 50.11     0.082 N 
HETATM   21  C25 OHT A 600      68.685  39.052  78.963  1.00 52.05     0.309 C 
HETATM   22  C26 OHT A 600      70.190  38.086  80.524  1.00 52.76     0.309 C 
ENDBRANCH  19  20
ENDBRANCH  18  19
ENDBRANCH  17  18
ENDBRANCH  14  17
ENDBRANCH   2  11
BRANCH   1  23
HETATM   23  C9  OHT A 600      67.622  33.181  70.401  1.00 23.31     0.036 C 
HETATM   24  C10 OHT A 600      66.315  33.581  69.774  1.00 26.22     0.010 C 
ENDBRANCH   1  23
BRANCH   1  25
HETATM   25  C11 OHT A 600      66.848  32.423  72.675  1.00 27.85    -0.029 A 
HETATM   26  C16 OHT A 600      67.493  31.506  73.532  1.00 28.59     0.012 A 
HETATM   27  C15 OHT A 600      66.751  30.605  74.296  1.00 30.60     0.001 A 
HETATM   28  C14 OHT A 600      65.372  30.584  74.231  1.00 30.44     0.000 A 
HETATM   29  C13 OHT A 600      64.726  31.470  73.400  1.00 31.30     0.001 A 
HETATM   30  C12 OHT A 600      65.460  32.380  72.631  1.00 28.04     0.012 A 
ENDBRANCH   1  25
TORSDOF 9
