REMARK  9 active torsions:
REMARK  status: ('A' for Active; 'I' for Inactive)
REMARK    1  A    between atoms: C9_2  and  C8_3 
REMARK    2  A    between atoms: C8_3  and  C11_4 
REMARK    3  A    between atoms: C7_10  and  C1_11 
REMARK    4  A    between atoms: C7_10  and  C17_19 
REMARK    5  A    between atoms: C4_14  and  O4_15 
REMARK    6  A    between atoms: C20_22  and  O20_23 
REMARK    7  A    between atoms: O20_23  and  C23_24 
REMARK    8  A    between atoms: C23_24  and  C24_25 
REMARK    9  A    between atoms: C24_25  and  N24_26 
ROOT
HETATM    1  C8  OHT A 600      67.551  34.919  71.747  1.00 25.22    -0.036 C 
HETATM    2  C7  OHT A 600      67.335  34.021  72.753  1.00 24.63    -0.009 C 
ENDROOT
BRANCH   2   3
HETATM    3  C1  OHT A 600      66.414  32.831  72.633  1.00 24.14    -0.024 A 
HETATM    4  C2  OHT A 600      65.830  32.212  73.782  1.00 26.17     0.015 A 
HETATM    5  C3  OHT A 600      65.021  31.075  73.647  1.00 26.36     0.037 A 
HETATM    6  C4  OHT A 600      64.787  30.546  72.363  1.00 29.58     0.065 A 
HETATM    7  C5  OHT A 600      65.357  31.152  71.220  1.00 27.04     0.037 A 
HETATM    8  C6  OHT A 600      66.157  32.277  71.376  1.00 25.11     0.015 A 
BRANCH   6   9
HETATM    9  O4  OHT A 600      64.013  29.429  72.259  1.00 28.95    -0.361 OA
ATOM     10  H4  OHT A 600      64.417  28.634  71.931  1.00  0.00     0.217 HD
ENDBRANCH   6   9
ENDBRANCH   2   3
BRANCH   2  11
HETATM   11  C17 OHT A 600      67.973  34.140  74.067  1.00 26.54    -0.024 A 
HETATM   12  C18 OHT A 600      67.460  34.976  75.056  1.00 26.76     0.015 A 
HETATM   13  C19 OHT A 600      68.027  35.081  76.294  1.00 28.12     0.037 A 
HETATM   14  C20 OHT A 600      69.154  34.333  76.594  1.00 28.11     0.068 A 
HETATM   15  C21 OHT A 600      69.702  33.481  75.619  1.00 26.98     0.037 A 
HETATM   16  C22 OHT A 600      69.115  33.394  74.388  1.00 27.89     0.015 A 
BRANCH  14  17
HETATM   17  O20 OHT A 600      69.761  34.351  77.817  1.00 31.97    -0.349 OA
BRANCH  17  18
HETATM   18  C23 OHT A 600      70.240  35.580  78.354  1.00 40.10     0.206 C 
BRANCH  18  19
HETATM   19  C24 OHT A 600      69.489  35.807  79.638  1.00 45.21     0.297 C 
BRANCH  19  20
HETATM   20  N24 OHT A 600      69.274  37.195  79.944  1.00 50.11     0.082 N 
HETATM   21  C25 OHT A 600      70.381  37.756  80.719  1.00 52.05     0.309 C 
HETATM   22  C26 OHT A 600      69.156  37.960  78.697  1.00 52.76     0.309 C 
ENDBRANCH  19  20
ENDBRANCH  18  19
ENDBRANCH  17  18
ENDBRANCH  14  17
ENDBRANCH   2  11
BRANCH   1  23
HETATM   23  C9  OHT A 600      66.664  35.004  70.522  1.00 23.31     0.036 C 
HETATM   24  C10 OHT A 600      65.776  36.217  70.546  1.00 26.22     0.010 C 
ENDBRANCH   1  23
BRANCH   1  25
HETATM   25  C11 OHT A 600      68.673  35.907  71.745  1.00 27.85    -0.029 A 
HETATM   26  C16 OHT A 600      70.003  35.485  71.956  1.00 28.59     0.012 A 
HETATM   27  C15 OHT A 600      71.054  36.401  71.905  1.00 30.60     0.001 A 
HETATM   28  C14 OHT A 600      70.821  37.738  71.650  1.00 30.44     0.000 A 
HETATM   29  C13 OHT A 600      69.531  38.166  71.443  1.00 31.30     0.001 A 
HETATM   30  C12 OHT A 600      68.469  37.257  71.490  1.00 28.04     0.012 A 
ENDBRANCH   1  25
TORSDOF 9
