REMARK  9 active torsions:
REMARK  status: ('A' for Active; 'I' for Inactive)
REMARK    1  A    between atoms: C9_2  and  C8_3 
REMARK    2  A    between atoms: C8_3  and  C11_4 
REMARK    3  A    between atoms: C7_10  and  C1_11 
REMARK    4  A    between atoms: C7_10  and  C17_19 
REMARK    5  A    between atoms: C4_14  and  O4_15 
REMARK    6  A    between atoms: C20_22  and  O20_23 
REMARK    7  A    between atoms: O20_23  and  C23_24 
REMARK    8  A    between atoms: C23_24  and  C24_25 
REMARK    9  A    between atoms: C24_25  and  N24_26 
ROOT
HETATM    1  C8  OHT A 600      67.561  34.867  71.702  1.00 25.22    -0.036 C 
HETATM    2  C7  OHT A 600      67.356  33.961  72.704  1.00 24.63    -0.009 C 
ENDROOT
BRANCH   2   3
HETATM    3  C1  OHT A 600      66.408  32.792  72.598  1.00 24.14    -0.024 A 
HETATM    4  C2  OHT A 600      65.778  32.226  73.750  1.00 26.17     0.015 A 
HETATM    5  C3  OHT A 600      64.942  31.106  73.630  1.00 26.36     0.037 A 
HETATM    6  C4  OHT A 600      64.728  30.542  72.358  1.00 29.58     0.065 A 
HETATM    7  C5  OHT A 600      65.343  31.095  71.211  1.00 27.04     0.037 A 
HETATM    8  C6  OHT A 600      66.168  32.204  71.352  1.00 25.11     0.015 A 
BRANCH   6   9
HETATM    9  O4  OHT A 600      63.928  29.442  72.269  1.00 28.95    -0.361 OA
ATOM     10  H4  OHT A 600      64.307  28.638  71.936  1.00  0.00     0.217 HD
ENDBRANCH   6   9
ENDBRANCH   2   3
BRANCH   2  11
HETATM   11  C17 OHT A 600      68.035  34.052  74.000  1.00 26.54    -0.024 A 
HETATM   12  C18 OHT A 600      67.668  35.000  74.952  1.00 26.76     0.015 A 
HETATM   13  C19 OHT A 600      68.273  35.083  76.174  1.00 28.12     0.037 A 
HETATM   14  C20 OHT A 600      69.289  34.197  76.494  1.00 28.11     0.068 A 
HETATM   15  C21 OHT A 600      69.687  33.228  75.556  1.00 26.98     0.037 A 
HETATM   16  C22 OHT A 600      69.066  33.166  74.341  1.00 27.89     0.015 A 
BRANCH  14  17
HETATM   17  O20 OHT A 600      69.920  34.187  77.705  1.00 31.97    -0.349 OA
BRANCH  17  18
HETATM   18  C23 OHT A 600      69.463  35.041  78.750  1.00 40.10     0.206 C 
BRANCH  18  19
HETATM   19  C24 OHT A 600      70.242  36.323  78.627  1.00 45.21     0.297 C 
BRANCH  19  20
HETATM   20  N24 OHT A 600      69.880  37.314  79.602  1.00 50.11     0.082 N 
HETATM   21  C25 OHT A 600      69.127  38.416  79.000  1.00 52.05     0.309 C 
HETATM   22  C26 OHT A 600      69.041  36.701  80.638  1.00 52.76     0.309 C 
ENDBRANCH  19  20
ENDBRANCH  18  19
ENDBRANCH  17  18
ENDBRANCH  14  17
ENDBRANCH   2  11
BRANCH   1  23
HETATM   23  C9  OHT A 600      66.641  34.984  70.505  1.00 23.31     0.036 C 
HETATM   24  C10 OHT A 600      65.777  36.213  70.570  1.00 26.22     0.010 C 
ENDBRANCH   1  23
BRANCH   1  25
HETATM   25  C11 OHT A 600      68.703  35.831  71.678  1.00 27.85    -0.029 A 
HETATM   26  C16 OHT A 600      68.475  37.213  71.512  1.00 28.59     0.012 A 
HETATM   27  C15 OHT A 600      69.538  38.116  71.539  1.00 30.60     0.001 A 
HETATM   28  C14 OHT A 600      70.836  37.682  71.723  1.00 30.44     0.000 A 
HETATM   29  C13 OHT A 600      71.077  36.338  71.885  1.00 31.30     0.001 A 
HETATM   30  C12 OHT A 600      70.019  35.423  71.862  1.00 28.04     0.012 A 
ENDBRANCH   1  25
TORSDOF 9
