REMARK  9 active torsions:
REMARK  status: ('A' for Active; 'I' for Inactive)
REMARK    1  A    between atoms: C9_2  and  C8_3 
REMARK    2  A    between atoms: C8_3  and  C11_4 
REMARK    3  A    between atoms: C7_10  and  C1_11 
REMARK    4  A    between atoms: C7_10  and  C17_19 
REMARK    5  A    between atoms: C4_14  and  O4_15 
REMARK    6  A    between atoms: C20_22  and  O20_23 
REMARK    7  A    between atoms: O20_23  and  C23_24 
REMARK    8  A    between atoms: C23_24  and  C24_25 
REMARK    9  A    between atoms: C24_25  and  N24_26 
ROOT
HETATM    1  C8  OHT A 600      67.376  33.652  71.672  1.00 25.22    -0.036 C 
HETATM    2  C7  OHT A 600      68.116  34.615  72.297  1.00 24.63    -0.009 C 
ENDROOT
BRANCH   2   3
HETATM    3  C1  OHT A 600      68.664  35.837  71.602  1.00 24.14    -0.024 A 
HETATM    4  C2  OHT A 600      67.858  36.632  70.728  1.00 26.17     0.015 A 
HETATM    5  C3  OHT A 600      68.407  37.732  70.053  1.00 26.36     0.037 A 
HETATM    6  C4  OHT A 600      69.765  38.048  70.246  1.00 29.58     0.065 A 
HETATM    7  C5  OHT A 600      70.570  37.272  71.110  1.00 27.04     0.037 A 
HETATM    8  C6  OHT A 600      70.008  36.185  71.767  1.00 25.11     0.015 A 
BRANCH   6   9
HETATM    9  O4  OHT A 600      70.280  39.110  69.564  1.00 28.95    -0.361 OA
ATOM     10  H4  OHT A 600      70.276  39.960  69.988  1.00  0.00     0.217 HD
ENDBRANCH   6   9
ENDBRANCH   2   3
BRANCH   2  11
HETATM   11  C17 OHT A 600      68.466  34.542  73.719  1.00 26.54    -0.024 A 
HETATM   12  C18 OHT A 600      69.589  33.845  74.160  1.00 26.76     0.015 A 
HETATM   13  C19 OHT A 600      69.945  33.786  75.478  1.00 28.12     0.037 A 
HETATM   14  C20 OHT A 600      69.171  34.441  76.422  1.00 28.11     0.068 A 
HETATM   15  C21 OHT A 600      68.029  35.152  76.014  1.00 26.98     0.037 A 
HETATM   16  C22 OHT A 600      67.695  35.195  74.689  1.00 27.89     0.015 A 
BRANCH  14  17
HETATM   17  O20 OHT A 600      69.475  34.464  77.753  1.00 31.97    -0.349 OA
BRANCH  17  18
HETATM   18  C23 OHT A 600      68.687  35.242  78.649  1.00 40.10     0.206 C 
BRANCH  18  19
HETATM   19  C24 OHT A 600      69.261  36.633  78.626  1.00 45.21     0.297 C 
BRANCH  19  20
HETATM   20  N24 OHT A 600      69.350  37.242  79.925  1.00 50.11     0.082 N 
HETATM   21  C25 OHT A 600      70.668  37.037  80.529  1.00 52.05     0.309 C 
HETATM   22  C26 OHT A 600      69.123  38.687  79.806  1.00 52.76     0.309 C 
ENDBRANCH  19  20
ENDBRANCH  18  19
ENDBRANCH  17  18
ENDBRANCH  14  17
ENDBRANCH   2  11
BRANCH   1  23
HETATM   23  C9  OHT A 600      67.287  33.539  70.165  1.00 23.31     0.036 C 
HETATM   24  C10 OHT A 600      66.153  32.654  69.726  1.00 26.22     0.010 C 
ENDBRANCH   1  23
BRANCH   1  25
HETATM   25  C11 OHT A 600      66.580  32.616  72.399  1.00 27.85    -0.029 A 
HETATM   26  C16 OHT A 600      67.120  31.336  72.645  1.00 28.59     0.012 A 
HETATM   27  C15 OHT A 600      66.395  30.387  73.366  1.00 30.60     0.001 A 
HETATM   28  C14 OHT A 600      65.135  30.674  73.854  1.00 30.44     0.000 A 
HETATM   29  C13 OHT A 600      64.594  31.916  73.623  1.00 31.30     0.001 A 
HETATM   30  C12 OHT A 600      65.311  32.877  72.902  1.00 28.04     0.012 A 
ENDBRANCH   1  25
TORSDOF 9
