DPC.pdb
  rDOCK(R)          3D
libRbt.so/2013.1/901 2013/11/27
 32 33  0  0  0  0  0  0  0  0999 V2000
   -1.8869   58.2461   -5.4256 C   0  0  0  0  0  0
   -1.0628   58.6050   -4.5926 O   0  0  0  0  0  0
   -3.0100   58.7316   -5.4162 O   0  0  0  0  0  0
   -1.4632   57.3272   -6.4973 C   0  0  0  0  0  0
   -0.4114   56.5177   -6.3342 C   0  0  0  0  0  0
   -0.0184   55.5425   -7.4105 C   0  0  0  0  0  0
   -0.6659   55.8781   -8.7513 C   0  0  0  0  0  0
   -0.6136   54.7058   -9.6171 N   0  0  0  0  0  0
    0.4750   54.3019  -10.2897 C   0  0  0  0  0  0
    1.5150   54.9369  -10.2535 O   0  0  0  0  0  0
    0.3522   52.9778  -11.0659 C   0  0  0  0  0  0
   -2.1257   56.2603   -8.5177 C   0  0  0  0  0  0
   -2.2244   57.3086   -7.5914 O   0  0  0  0  0  0
   -2.7124   56.8267   -9.7910 C   0  0  0  0  0  0
   -2.0677   57.3412  -10.3015 O   0  0  0  0  0  0
   -3.9248   56.4608  -10.1844 N   0  0  0  0  0  0
   -4.3786   56.9935  -11.4882 C   0  0  0  0  0  0
   -5.8369   57.4617  -11.4544 C   0  0  0  0  0  0
   -6.2996   57.7233  -12.8739 C   0  0  0  0  0  0
   -6.3605   59.0434  -13.3737 C   0  0  0  0  0  0
   -6.7044   56.6650  -13.7002 C   0  0  0  0  0  0
   -6.8536   59.2994  -14.6653 C   0  0  0  0  0  0
   -7.1942   56.9180  -14.9853 C   0  0  0  0  0  0
   -7.2835   58.2295  -15.4713 C   0  0  0  0  0  0
   -4.8339   55.6433   -9.3842 C   0  0  0  0  0  0
   -5.3779   56.3969   -8.1585 C   0  0  0  0  0  0
   -6.7072   55.8586   -7.5970 C   0  0  0  0  0  0
    1.4140   55.5435   -7.5446 N   0  0  0  0  0  0
   -3.4573   58.8618   -4.6032 H   0  0  0  0  0  0
   -1.4355   54.1728   -9.7151 H   0  0  0  0  0  0
    1.7778   54.6192   -7.3128 H   0  0  0  0  0  0
    1.8143   56.2352   -6.9108 H   0  0  0  0  0  0
  1  2  2  0  0  0
  1  3  1  0  0  0
  1  4  1  0  0  0
  3 29  1  0  0  0
  4  5  2  0  0  0
  4 13  1  0  0  0
  5  6  1  0  0  0
  6  7  1  0  0  0
  6 28  1  0  0  0
  7  8  1  0  0  0
  7 12  1  0  0  0
  8  9  1  0  0  0
  8 30  1  0  0  0
  9 10  2  0  0  0
  9 11  1  0  0  0
 12 13  1  0  0  0
 12 14  1  0  0  0
 14 15  2  0  0  0
 14 16  1  0  0  0
 16 17  1  0  0  0
 16 25  1  0  0  0
 17 18  1  0  0  0
 18 19  1  0  0  0
 19 20  2  0  0  0
 19 21  1  0  0  0
 20 22  1  0  0  0
 21 23  2  0  0  0
 22 24  2  0  0  0
 23 24  1  0  0  0
 25 26  1  0  0  0
 26 27  1  0  0  0
 28 31  1  0  0  0
 28 32  1  0  0  0
M  END
>  <CHROM.0>
47.94760343,-9.91684374,-144.17854885,3.67726325,89.90401608,-43.71232708
-140.23279797,-13.86493804

>  <CHROM.1>
-42.17445096,24.37741759,117.33597951,-78.30232342,-35.03881369,-137.42876470
69.93277773,-168.66640570,-100.98335653,156.96056278,-3.00231587,56.68808341
-9.63773110,0.68215411,-0.47883516,1.26590504

>  <FORMUL>
      DPC    C20 H27 N3 O5

>  <HET>
 DPC  A 466      28

>  <HETNAM>
     DPC 5-ACETYLAMINO-4-AMINO-6-(PHENETHYL-PROPYL-CARBAMOYL)-5,
   2 DPC 6-DIHYDRO-4H-PYRAN-2-CARBOXYLIC ACID

>  <Name>
DPC.pdb

>  <RI>
1.06532e+07

>  <Rbt.Current_Directory>
/home/malgorzata/Desktop/rDOCK_IFD/Wyniki/11_neuraminidase

>  <Rbt.Executable>
rbdock ($Id: //depot/dev/client3/rdock/2013.1/src/exe/rbdock.cxx#4 $)

>  <Rbt.Library>
libRbt.so (2013.1, Build901 2013/11/27)

>  <Rbt.Parameter_File>
/home/malgorzata/Desktop/rDock_2013.1_src/data/scripts/soft_docking.prm

>  <Rbt.Receptor>
cavity.prm

>  <SCORE>
-56.3556

>  <SCORE.INTER>
-34.6259

>  <SCORE.INTER.CONST>
1

>  <SCORE.INTER.POLAR>
-6.16634

>  <SCORE.INTER.REPUL>
0.35089

>  <SCORE.INTER.ROT>
9

>  <SCORE.INTER.VDW>
-29.8148

>  <SCORE.INTER.norm>
-1.23664

>  <SCORE.INTRA>
5.32583

>  <SCORE.INTRA.DIHEDRAL>
13.8736

>  <SCORE.INTRA.DIHEDRAL.0>
7.68839

>  <SCORE.INTRA.POLAR>
0

>  <SCORE.INTRA.POLAR.0>
0

>  <SCORE.INTRA.REPUL>
0

>  <SCORE.INTRA.REPUL.0>
0

>  <SCORE.INTRA.VDW>
2.5511

>  <SCORE.INTRA.VDW.0>
-2.73227

>  <SCORE.INTRA.norm>
0.190208

>  <SCORE.RESTR>
0.244245

>  <SCORE.RESTR.CAVITY>
0.244245

>  <SCORE.RESTR.norm>
0.00872305

>  <SCORE.SYSTEM>
-27.2998

>  <SCORE.SYSTEM.CONST>
0

>  <SCORE.SYSTEM.DIHEDRAL>
4.92492

>  <SCORE.SYSTEM.POLAR>
-6.95796

>  <SCORE.SYSTEM.VDW>
-6.10516

>  <SCORE.SYSTEM.norm>
-0.974992

>  <SCORE.heavy>
28

>  <SCORE.norm>
-2.0127

$$$$
DPC.pdb
  rDOCK(R)          3D
libRbt.so/2013.1/901 2013/11/27
 32 33  0  0  0  0  0  0  0  0999 V2000
   -1.4199   61.8762   -7.5367 C   0  0  0  0  0  0
   -0.3461   62.1958   -7.0400 O   0  0  0  0  0  0
   -2.0732   62.7058   -8.1550 O   0  0  0  0  0  0
   -1.8384   60.4640   -7.4817 C   0  0  0  0  0  0
   -2.4561   59.9706   -6.4032 C   0  0  0  0  0  0
   -2.9306   58.5430   -6.3757 C   0  0  0  0  0  0
   -2.2874   57.7046   -7.4772 C   0  0  0  0  0  0
   -3.0750   56.4945   -7.6820 N   0  0  0  0  0  0
   -4.2170   56.4371   -8.3843 C   0  0  0  0  0  0
   -4.7100   57.4375   -8.8766 O   0  0  0  0  0  0
   -4.8402   55.0416   -8.5715 C   0  0  0  0  0  0
   -2.2700   58.5130   -8.7725 C   0  0  0  0  0  0
   -1.6256   59.7441   -8.5832 O   0  0  0  0  0  0
   -1.4249   57.8007   -9.8043 C   0  0  0  0  0  0
   -0.5593   57.5339   -9.4570 O   0  0  0  0  0  0
   -1.9515   57.4554  -10.9714 N   0  0  0  0  0  0
   -1.0778   56.6809  -11.8805 C   0  0  0  0  0  0
   -1.6219   55.2766  -12.1608 C   0  0  0  0  0  0
   -1.0406   54.3148  -11.1436 C   0  0  0  0  0  0
   -0.0024   53.4292  -11.5097 C   0  0  0  0  0  0
   -1.5449   54.2665   -9.8360 C   0  0  0  0  0  0
    0.4944   52.4875  -10.5914 C   0  0  0  0  0  0
   -1.0512   53.3310   -8.9213 C   0  0  0  0  0  0
   -0.0424   52.4317   -9.2921 C   0  0  0  0  0  0
   -3.2845   57.8533  -11.4186 C   0  0  0  0  0  0
   -3.2416   58.7593  -12.6611 C   0  0  0  0  0  0
   -4.6095   59.2864  -13.1334 C   0  0  0  0  0  0
   -2.6312   57.9736   -5.0890 N   0  0  0  0  0  0
   -1.6836   63.5227   -8.3977 H   0  0  0  0  0  0
   -2.7454   55.6603   -7.2762 H   0  0  0  0  0  0
   -2.7554   56.9619   -5.1277 H   0  0  0  0  0  0
   -3.2599   58.3668   -4.3886 H   0  0  0  0  0  0
  1  2  2  0  0  0
  1  3  1  0  0  0
  1  4  1  0  0  0
  3 29  1  0  0  0
  4  5  2  0  0  0
  4 13  1  0  0  0
  5  6  1  0  0  0
  6  7  1  0  0  0
  6 28  1  0  0  0
  7  8  1  0  0  0
  7 12  1  0  0  0
  8  9  1  0  0  0
  8 30  1  0  0  0
  9 10  2  0  0  0
  9 11  1  0  0  0
 12 13  1  0  0  0
 12 14  1  0  0  0
 14 15  2  0  0  0
 14 16  1  0  0  0
 16 17  1  0  0  0
 16 25  1  0  0  0
 17 18  1  0  0  0
 18 19  1  0  0  0
 19 20  2  0  0  0
 19 21  1  0  0  0
 20 22  1  0  0  0
 21 23  2  0  0  0
 22 24  2  0  0  0
 23 24  1  0  0  0
 25 26  1  0  0  0
 26 27  1  0  0  0
 28 31  1  0  0  0
 28 32  1  0  0  0
M  END
>  <CHROM.0>
44.32901450,-141.35395857,-66.83896972,138.10045437,96.40500324,152.09717133
-141.96475899,35.88733608

>  <CHROM.1>
12.41435726,84.27132342,-167.47033653,79.24924041,-49.21747459,116.63873092
115.72574585,-91.49444768,-104.02552066,-176.38463106,-2.09294178,57.45358295
-9.23489923,2.23232582,-1.36276789,1.07431145

>  <FORMUL>
      DPC    C20 H27 N3 O5

>  <HET>
 DPC  A 466      28

>  <HETNAM>
     DPC 5-ACETYLAMINO-4-AMINO-6-(PHENETHYL-PROPYL-CARBAMOYL)-5,
   2 DPC 6-DIHYDRO-4H-PYRAN-2-CARBOXYLIC ACID

>  <Name>
DPC.pdb

>  <RI>
1.06532e+07

>  <Rbt.Current_Directory>
/home/malgorzata/Desktop/rDOCK_IFD/Wyniki/11_neuraminidase

>  <Rbt.Executable>
rbdock ($Id: //depot/dev/client3/rdock/2013.1/src/exe/rbdock.cxx#4 $)

>  <Rbt.Library>
libRbt.so (2013.1, Build901 2013/11/27)

>  <Rbt.Parameter_File>
/home/malgorzata/Desktop/rDock_2013.1_src/data/scripts/soft_docking.prm

>  <Rbt.Receptor>
cavity.prm

>  <SCORE>
-46.7073

>  <SCORE.INTER>
-20.2463

>  <SCORE.INTER.CONST>
1

>  <SCORE.INTER.POLAR>
-3.26857

>  <SCORE.INTER.REPUL>
0.122884

>  <SCORE.INTER.ROT>
9

>  <SCORE.INTER.VDW>
-24.1475

>  <SCORE.INTER.norm>
-0.723081

>  <SCORE.INTRA>
2.17388

>  <SCORE.INTRA.DIHEDRAL>
14.9279

>  <SCORE.INTRA.DIHEDRAL.0>
7.68839

>  <SCORE.INTRA.POLAR>
0

>  <SCORE.INTRA.POLAR.0>
0

>  <SCORE.INTRA.REPUL>
0

>  <SCORE.INTRA.REPUL.0>
0

>  <SCORE.INTRA.VDW>
-0.811689

>  <SCORE.INTRA.VDW.0>
-2.73227

>  <SCORE.INTRA.norm>
0.0776387

>  <SCORE.RESTR>
0.0255967

>  <SCORE.RESTR.CAVITY>
0.0255967

>  <SCORE.RESTR.norm>
0.000914167

>  <SCORE.SYSTEM>
-28.6605

>  <SCORE.SYSTEM.CONST>
0

>  <SCORE.SYSTEM.DIHEDRAL>
5.15302

>  <SCORE.SYSTEM.POLAR>
-7.00509

>  <SCORE.SYSTEM.VDW>
-7.41969

>  <SCORE.SYSTEM.norm>
-1.02359

>  <SCORE.heavy>
28

>  <SCORE.norm>
-1.66812

$$$$
DPC.pdb
  rDOCK(R)          3D
libRbt.so/2013.1/901 2013/11/27
 32 33  0  0  0  0  0  0  0  0999 V2000
    2.2659   55.8251   -8.0814 C   0  0  0  0  0  0
    3.1429   55.8883   -8.9351 O   0  0  0  0  0  0
    2.4139   56.4071   -7.0153 O   0  0  0  0  0  0
    0.9979   55.1497   -8.4109 C   0  0  0  0  0  0
    0.9894   53.9235   -8.9442 C   0  0  0  0  0  0
   -0.3091   53.2174   -9.2261 C   0  0  0  0  0  0
   -1.4962   54.1768   -9.2164 C   0  0  0  0  0  0
   -2.7293   53.4140   -9.0605 N   0  0  0  0  0  0
   -3.9251   53.7905   -9.5389 C   0  0  0  0  0  0
   -4.0709   54.8539  -10.1171 O   0  0  0  0  0  0
   -5.0834   52.7920   -9.3593 C   0  0  0  0  0  0
   -1.3515   55.1365   -8.0376 C   0  0  0  0  0  0
   -0.1180   55.8021   -8.0852 O   0  0  0  0  0  0
   -2.3791   56.2398   -8.1517 C   0  0  0  0  0  0
   -2.9794   56.2699   -7.3903 O   0  0  0  0  0  0
   -2.2858   57.1371   -9.1237 N   0  0  0  0  0  0
   -3.2807   58.2322   -9.1015 C   0  0  0  0  0  0
   -2.6904   59.5498   -8.5893 C   0  0  0  0  0  0
   -3.7606   60.6215   -8.6500 C   0  0  0  0  0  0
   -5.0704   60.3002   -9.0712 C   0  0  0  0  0  0
   -3.4600   61.9512   -8.3212 C   0  0  0  0  0  0
   -6.0498   61.3013   -9.1958 C   0  0  0  0  0  0
   -4.4333   62.9478   -8.4438 C   0  0  0  0  0  0
   -5.7245   62.6355   -8.8904 C   0  0  0  0  0  0
   -1.3253   57.0583  -10.2221 C   0  0  0  0  0  0
   -2.0046   57.1049  -11.6015 C   0  0  0  0  0  0
   -2.3634   55.7321  -12.2003 C   0  0  0  0  0  0
   -0.2193   52.5624  -10.5038 N   0  0  0  0  0  0
    1.7534   56.3476   -6.3534 H   0  0  0  0  0  0
   -2.6810   52.5622   -8.5692 H   0  0  0  0  0  0
    0.6787   52.0845  -10.5785 H   0  0  0  0  0  0
   -0.2984   53.2558  -11.2477 H   0  0  0  0  0  0
  1  2  2  0  0  0
  1  3  1  0  0  0
  1  4  1  0  0  0
  3 29  1  0  0  0
  4  5  2  0  0  0
  4 13  1  0  0  0
  5  6  1  0  0  0
  6  7  1  0  0  0
  6 28  1  0  0  0
  7  8  1  0  0  0
  7 12  1  0  0  0
  8  9  1  0  0  0
  8 30  1  0  0  0
  9 10  2  0  0  0
  9 11  1  0  0  0
 12 13  1  0  0  0
 12 14  1  0  0  0
 14 15  2  0  0  0
 14 16  1  0  0  0
 16 17  1  0  0  0
 16 25  1  0  0  0
 17 18  1  0  0  0
 18 19  1  0  0  0
 19 20  2  0  0  0
 19 21  1  0  0  0
 20 22  1  0  0  0
 21 23  2  0  0  0
 22 24  2  0  0  0
 23 24  1  0  0  0
 25 26  1  0  0  0
 26 27  1  0  0  0
 28 31  1  0  0  0
 28 32  1  0  0  0
M  END
>  <CHROM.0>
86.91405560,-135.53571881,-25.38653737,81.36334995,-56.73591976,-55.87251664
-161.58965169,-63.89732642

>  <CHROM.1>
-178.80009495,50.73855227,44.57045359,-151.08076066,120.22748331,103.59818184
124.40857728,177.90186530,2.73404332,-91.70379605,-1.98751060,56.69089883
-9.06252867,-0.96307979,-0.23590709,0.18876873

>  <FORMUL>
      DPC    C20 H27 N3 O5

>  <HET>
 DPC  A 466      28

>  <HETNAM>
     DPC 5-ACETYLAMINO-4-AMINO-6-(PHENETHYL-PROPYL-CARBAMOYL)-5,
   2 DPC 6-DIHYDRO-4H-PYRAN-2-CARBOXYLIC ACID

>  <Name>
DPC.pdb

>  <RI>
1.06532e+07

>  <Rbt.Current_Directory>
/home/malgorzata/Desktop/rDOCK_IFD/Wyniki/11_neuraminidase

>  <Rbt.Executable>
rbdock ($Id: //depot/dev/client3/rdock/2013.1/src/exe/rbdock.cxx#4 $)

>  <Rbt.Library>
libRbt.so (2013.1, Build901 2013/11/27)

>  <Rbt.Parameter_File>
/home/malgorzata/Desktop/rDock_2013.1_src/data/scripts/soft_docking.prm

>  <Rbt.Receptor>
cavity.prm

>  <SCORE>
-48.8382

>  <SCORE.INTER>
-24.7069

>  <SCORE.INTER.CONST>
1

>  <SCORE.INTER.POLAR>
-4.03616

>  <SCORE.INTER.REPUL>
0.473028

>  <SCORE.INTER.ROT>
9

>  <SCORE.INTER.VDW>
-27.749

>  <SCORE.INTER.norm>
-0.882388

>  <SCORE.INTRA>
3.58626

>  <SCORE.INTRA.DIHEDRAL>
7.07053

>  <SCORE.INTRA.DIHEDRAL.0>
7.68839

>  <SCORE.INTRA.POLAR>
0

>  <SCORE.INTRA.POLAR.0>
0

>  <SCORE.INTRA.REPUL>
0

>  <SCORE.INTRA.REPUL.0>
0

>  <SCORE.INTRA.VDW>
2.17216

>  <SCORE.INTRA.VDW.0>
-2.73227

>  <SCORE.INTRA.norm>
0.128081

>  <SCORE.RESTR>
0

>  <SCORE.RESTR.CAVITY>
0

>  <SCORE.RESTR.norm>
0

>  <SCORE.SYSTEM>
-27.7176

>  <SCORE.SYSTEM.CONST>
0

>  <SCORE.SYSTEM.DIHEDRAL>
5.82094

>  <SCORE.SYSTEM.POLAR>
-7.29436

>  <SCORE.SYSTEM.VDW>
-5.82726

>  <SCORE.SYSTEM.norm>
-0.989914

>  <SCORE.heavy>
28

>  <SCORE.norm>
-1.74422

$$$$
DPC.pdb
  rDOCK(R)          3D
libRbt.so/2013.1/901 2013/11/27
 32 33  0  0  0  0  0  0  0  0999 V2000
   -1.8528   59.0235   -6.3414 C   0  0  0  0  0  0
   -1.2060   59.2755   -5.3314 O   0  0  0  0  0  0
   -2.7872   59.7467   -6.6596 O   0  0  0  0  0  0
   -1.4086   57.9237   -7.2163 C   0  0  0  0  0  0
   -0.3982   57.1243   -6.8581 C   0  0  0  0  0  0
    0.0135   55.9691   -7.7298 C   0  0  0  0  0  0
   -0.5495   56.0896   -9.1435 C   0  0  0  0  0  0
   -0.4963   54.7858   -9.7947 N   0  0  0  0  0  0
    0.6115   54.2392  -10.3185 C   0  0  0  0  0  0
    1.6734   54.8380  -10.3228 O   0  0  0  0  0  0
    0.4786   52.8067  -10.8673 C   0  0  0  0  0  0
   -2.0040   56.5474   -9.0630 C   0  0  0  0  0  0
   -2.1114   57.7406   -8.3340 O   0  0  0  0  0  0
   -2.5011   56.9049  -10.4455 C   0  0  0  0  0  0
   -1.7984   57.2555  -11.0149 O   0  0  0  0  0  0
   -3.7304   56.5731  -10.8162 N   0  0  0  0  0  0
   -4.0974   56.8806  -12.2164 C   0  0  0  0  0  0
   -5.1413   55.9088  -12.7755 C   0  0  0  0  0  0
   -5.9304   56.6109  -13.8627 C   0  0  0  0  0  0
   -5.4916   56.5680  -15.2050 C   0  0  0  0  0  0
   -7.0871   57.3392  -13.5493 C   0  0  0  0  0  0
   -6.1799   57.2736  -16.2076 C   0  0  0  0  0  0
   -7.7732   58.0407  -14.5456 C   0  0  0  0  0  0
   -7.3219   58.0237  -15.8723 C   0  0  0  0  0  0
   -4.7319   56.0042   -9.9172 C   0  0  0  0  0  0
   -5.6666   57.0735   -9.3262 C   0  0  0  0  0  0
   -5.1043   57.8337   -8.1105 C   0  0  0  0  0  0
    1.4499   55.9065   -7.7786 N   0  0  0  0  0  0
   -3.0924   60.4056   -6.0673 H   0  0  0  0  0  0
   -1.3328   54.2700   -9.8542 H   0  0  0  0  0  0
    1.7373   55.2591   -8.5126 H   0  0  0  0  0  0
    1.8068   55.5818   -6.8799 H   0  0  0  0  0  0
  1  2  2  0  0  0
  1  3  1  0  0  0
  1  4  1  0  0  0
  3 29  1  0  0  0
  4  5  2  0  0  0
  4 13  1  0  0  0
  5  6  1  0  0  0
  6  7  1  0  0  0
  6 28  1  0  0  0
  7  8  1  0  0  0
  7 12  1  0  0  0
  8  9  1  0  0  0
  8 30  1  0  0  0
  9 10  2  0  0  0
  9 11  1  0  0  0
 12 13  1  0  0  0
 12 14  1  0  0  0
 14 15  2  0  0  0
 14 16  1  0  0  0
 16 17  1  0  0  0
 16 25  1  0  0  0
 17 18  1  0  0  0
 18 19  1  0  0  0
 19 20  2  0  0  0
 19 21  1  0  0  0
 20 22  1  0  0  0
 21 23  2  0  0  0
 22 24  2  0  0  0
 23 24  1  0  0  0
 25 26  1  0  0  0
 26 27  1  0  0  0
 28 31  1  0  0  0
 28 32  1  0  0  0
M  END
>  <CHROM.0>
56.48479246,-102.81403731,-34.62378766,80.61247978,-6.51612798,-68.81830882
171.20070771,63.84651461

>  <CHROM.1>
-9.67723755,6.53373813,-168.24582918,-77.91670799,-31.49056919,150.78436609
95.06463207,153.20278236,89.38284780,-81.82452701,-2.81558151,56.80116292
-10.24170459,0.67238229,-0.53145867,1.06131227

>  <FORMUL>
      DPC    C20 H27 N3 O5

>  <HET>
 DPC  A 466      28

>  <HETNAM>
     DPC 5-ACETYLAMINO-4-AMINO-6-(PHENETHYL-PROPYL-CARBAMOYL)-5,
   2 DPC 6-DIHYDRO-4H-PYRAN-2-CARBOXYLIC ACID

>  <Name>
DPC.pdb

>  <RI>
1.06532e+07

>  <Rbt.Current_Directory>
/home/malgorzata/Desktop/rDOCK_IFD/Wyniki/11_neuraminidase

>  <Rbt.Executable>
rbdock ($Id: //depot/dev/client3/rdock/2013.1/src/exe/rbdock.cxx#4 $)

>  <Rbt.Library>
libRbt.so (2013.1, Build901 2013/11/27)

>  <Rbt.Parameter_File>
/home/malgorzata/Desktop/rDock_2013.1_src/data/scripts/soft_docking.prm

>  <Rbt.Receptor>
cavity.prm

>  <SCORE>
-58.5107

>  <SCORE.INTER>
-32.9874

>  <SCORE.INTER.CONST>
1

>  <SCORE.INTER.POLAR>
-4.86562

>  <SCORE.INTER.REPUL>
0.480006

>  <SCORE.INTER.ROT>
9

>  <SCORE.INTER.VDW>
-33.2444

>  <SCORE.INTER.norm>
-1.17812

>  <SCORE.INTRA>
3.08402

>  <SCORE.INTRA.DIHEDRAL>
2.83162

>  <SCORE.INTRA.DIHEDRAL.0>
7.68839

>  <SCORE.INTRA.POLAR>
0

>  <SCORE.INTRA.POLAR.0>
0

>  <SCORE.INTRA.REPUL>
0

>  <SCORE.INTRA.REPUL.0>
0

>  <SCORE.INTRA.VDW>
2.51769

>  <SCORE.INTRA.VDW.0>
-2.73227

>  <SCORE.INTRA.norm>
0.110144

>  <SCORE.RESTR>
0.425437

>  <SCORE.RESTR.CAVITY>
0.425437

>  <SCORE.RESTR.norm>
0.0151942

>  <SCORE.SYSTEM>
-29.0327

>  <SCORE.SYSTEM.CONST>
0

>  <SCORE.SYSTEM.DIHEDRAL>
2.69631

>  <SCORE.SYSTEM.POLAR>
-7.01376

>  <SCORE.SYSTEM.VDW>
-6.53407

>  <SCORE.SYSTEM.norm>
-1.03688

>  <SCORE.heavy>
28

>  <SCORE.norm>
-2.08967

$$$$
DPC.pdb
  rDOCK(R)          3D
libRbt.so/2013.1/901 2013/11/27
 32 33  0  0  0  0  0  0  0  0999 V2000
   -1.1885   57.7068   -6.2701 C   0  0  0  0  0  0
   -0.4076   58.4690   -5.7123 O   0  0  0  0  0  0
   -2.3537   57.6544   -5.9001 O   0  0  0  0  0  0
   -0.7318   56.9614   -7.4568 C   0  0  0  0  0  0
    0.4110   56.2674   -7.4362 C   0  0  0  0  0  0
    0.8432   55.4634   -8.6323 C   0  0  0  0  0  0
    0.0821   55.8605   -9.8944 C   0  0  0  0  0  0
    0.2108   54.8000  -10.8870 N   0  0  0  0  0  0
    0.0638   54.9710  -12.2098 C   0  0  0  0  0  0
   -0.2413   56.0539  -12.6795 O   0  0  0  0  0  0
    0.3451   53.7448  -13.0975 C   0  0  0  0  0  0
   -1.3940   56.0433   -9.5491 C   0  0  0  0  0  0
   -1.5515   56.9696   -8.5080 O   0  0  0  0  0  0
   -2.1162   56.6683  -10.7213 C   0  0  0  0  0  0
   -1.9647   57.6243  -10.7854 O   0  0  0  0  0  0
   -2.7165   55.8988  -11.6192 N   0  0  0  0  0  0
   -3.3170   56.5932  -12.7798 C   0  0  0  0  0  0
   -4.5841   57.3692  -12.4069 C   0  0  0  0  0  0
   -5.4975   57.4239  -13.6154 C   0  0  0  0  0  0
   -6.2187   58.6018  -13.9131 C   0  0  0  0  0  0
   -5.6657   56.2990  -14.4356 C   0  0  0  0  0  0
   -7.1199   58.6378  -14.9918 C   0  0  0  0  0  0
   -6.5609   56.3336  -15.5094 C   0  0  0  0  0  0
   -7.2994   57.4918  -15.7877 C   0  0  0  0  0  0
   -2.8729   54.4522  -11.4850 C   0  0  0  0  0  0
   -4.3477   54.0157  -11.5077 C   0  0  0  0  0  0
   -5.0854   54.1340  -10.1609 C   0  0  0  0  0  0
    2.2558   55.6454   -8.8347 N   0  0  0  0  0  0
   -2.9687   57.1203   -6.3633 H   0  0  0  0  0  0
    0.4206   53.8941  -10.5637 H   0  0  0  0  0  0
    2.4781   55.5102   -9.8210 H   0  0  0  0  0  0
    2.7699   54.9660   -8.2740 H   0  0  0  0  0  0
  1  2  2  0  0  0
  1  3  1  0  0  0
  1  4  1  0  0  0
  3 29  1  0  0  0
  4  5  2  0  0  0
  4 13  1  0  0  0
  5  6  1  0  0  0
  6  7  1  0  0  0
  6 28  1  0  0  0
  7  8  1  0  0  0
  7 12  1  0  0  0
  8  9  1  0  0  0
  8 30  1  0  0  0
  9 10  2  0  0  0
  9 11  1  0  0  0
 12 13  1  0  0  0
 12 14  1  0  0  0
 14 15  2  0  0  0
 14 16  1  0  0  0
 16 17  1  0  0  0
 16 25  1  0  0  0
 17 18  1  0  0  0
 18 19  1  0  0  0
 19 20  2  0  0  0
 19 21  1  0  0  0
 20 22  1  0  0  0
 21 23  2  0  0  0
 22 24  2  0  0  0
 23 24  1  0  0  0
 25 26  1  0  0  0
 26 27  1  0  0  0
 28 31  1  0  0  0
 28 32  1  0  0  0
M  END
>  <CHROM.0>
89.90413204,-178.78848209,40.98095534,146.29708965,83.91255375,154.64221654
-120.97063453,89.55824434

>  <CHROM.1>
175.52551597,50.45846827,-152.89604081,-157.11049565,-78.25952019,-72.18159412
121.02238032,-150.78810219,-140.49795699,-82.66616116,-2.39005776,56.34553504
-10.87419681,0.71884718,-0.46788307,1.16328545

>  <FORMUL>
      DPC    C20 H27 N3 O5

>  <HET>
 DPC  A 466      28

>  <HETNAM>
     DPC 5-ACETYLAMINO-4-AMINO-6-(PHENETHYL-PROPYL-CARBAMOYL)-5,
   2 DPC 6-DIHYDRO-4H-PYRAN-2-CARBOXYLIC ACID

>  <Name>
DPC.pdb

>  <RI>
1.06532e+07

>  <Rbt.Current_Directory>
/home/malgorzata/Desktop/rDOCK_IFD/Wyniki/11_neuraminidase

>  <Rbt.Executable>
rbdock ($Id: //depot/dev/client3/rdock/2013.1/src/exe/rbdock.cxx#4 $)

>  <Rbt.Library>
libRbt.so (2013.1, Build901 2013/11/27)

>  <Rbt.Parameter_File>
/home/malgorzata/Desktop/rDock_2013.1_src/data/scripts/soft_docking.prm

>  <Rbt.Receptor>
cavity.prm

>  <SCORE>
-55.6521

>  <SCORE.INTER>
-33.9639

>  <SCORE.INTER.CONST>
1

>  <SCORE.INTER.POLAR>
-4.95018

>  <SCORE.INTER.REPUL>
0.0539706

>  <SCORE.INTER.ROT>
9

>  <SCORE.INTER.VDW>
-31.8032

>  <SCORE.INTER.norm>
-1.213

>  <SCORE.INTRA>
3.09189

>  <SCORE.INTRA.DIHEDRAL>
9.94912

>  <SCORE.INTRA.DIHEDRAL.0>
7.68839

>  <SCORE.INTRA.POLAR>
0

>  <SCORE.INTRA.POLAR.0>
0

>  <SCORE.INTRA.REPUL>
0

>  <SCORE.INTRA.REPUL.0>
0

>  <SCORE.INTRA.VDW>
1.10206

>  <SCORE.INTRA.VDW.0>
-2.73227

>  <SCORE.INTRA.norm>
0.110425

>  <SCORE.RESTR>
0.0107477

>  <SCORE.RESTR.CAVITY>
0.0107477

>  <SCORE.RESTR.norm>
0.000383847

>  <SCORE.SYSTEM>
-24.7908

>  <SCORE.SYSTEM.CONST>
0

>  <SCORE.SYSTEM.DIHEDRAL>
9.31797

>  <SCORE.SYSTEM.POLAR>
-6.87033

>  <SCORE.SYSTEM.REPUL>
0.171741

>  <SCORE.SYSTEM.VDW>
-6.94937

>  <SCORE.SYSTEM.norm>
-0.885387

>  <SCORE.heavy>
28

>  <SCORE.norm>
-1.98758

$$$$
DPC.pdb
  rDOCK(R)          3D
libRbt.so/2013.1/901 2013/11/27
 32 33  0  0  0  0  0  0  0  0999 V2000
   -1.7104   58.4969   -5.6300 C   0  0  0  0  0  0
   -2.8273   59.0014   -5.6306 O   0  0  0  0  0  0
   -0.9582   58.6896   -4.6843 O   0  0  0  0  0  0
   -1.3478   57.5671   -6.7146 C   0  0  0  0  0  0
   -0.3085   56.7350   -6.5892 C   0  0  0  0  0  0
    0.0220   55.7495   -7.6771 C   0  0  0  0  0  0
   -0.6683   56.0970   -8.9934 C   0  0  0  0  0  0
   -0.6745   54.9224   -9.8576 N   0  0  0  0  0  0
   -0.8829   54.9512  -11.1829 C   0  0  0  0  0  0
   -1.1331   55.9937  -11.7633 O   0  0  0  0  0  0
   -0.7436   53.6124  -11.9305 C   0  0  0  0  0  0
   -2.1094   56.5116   -8.7058 C   0  0  0  0  0  0
   -2.1500   57.5634   -7.7791 O   0  0  0  0  0  0
   -2.7313   57.0886   -9.9574 C   0  0  0  0  0  0
   -2.4367   57.9955  -10.1357 O   0  0  0  0  0  0
   -3.4435   56.3134  -10.7639 N   0  0  0  0  0  0
   -3.9346   56.9415  -12.0105 C   0  0  0  0  0  0
   -4.9532   58.0542  -11.7441 C   0  0  0  0  0  0
   -5.9455   58.0935  -12.8893 C   0  0  0  0  0  0
   -7.3225   58.2826  -12.6354 C   0  0  0  0  0  0
   -5.5177   57.9105  -14.2122 C   0  0  0  0  0  0
   -8.2565   58.2514  -13.6859 C   0  0  0  0  0  0
   -6.4455   57.8802  -15.2581 C   0  0  0  0  0  0
   -7.8148   58.0375  -15.0043 C   0  0  0  0  0  0
   -3.8170   54.9347  -10.4561 C   0  0  0  0  0  0
   -5.2918   54.8044  -10.0383 C   0  0  0  0  0  0
   -5.8624   53.3749  -10.0912 C   0  0  0  0  0  0
    1.4479   55.7188   -7.8652 N   0  0  0  0  0  0
   -0.6351   59.5519   -4.5108 H   0  0  0  0  0  0
   -0.5143   54.0458   -9.4389 H   0  0  0  0  0  0
    1.6630   55.2904   -8.7656 H   0  0  0  0  0  0
    1.8778   55.1736   -7.1180 H   0  0  0  0  0  0
  1  2  2  0  0  0
  1  3  1  0  0  0
  1  4  1  0  0  0
  3 29  1  0  0  0
  4  5  2  0  0  0
  4 13  1  0  0  0
  5  6  1  0  0  0
  6  7  1  0  0  0
  6 28  1  0  0  0
  7  8  1  0  0  0
  7 12  1  0  0  0
  8  9  1  0  0  0
  8 30  1  0  0  0
  9 10  2  0  0  0
  9 11  1  0  0  0
 12 13  1  0  0  0
 12 14  1  0  0  0
 14 15  2  0  0  0
 14 16  1  0  0  0
 16 17  1  0  0  0
 16 25  1  0  0  0
 17 18  1  0  0  0
 18 19  1  0  0  0
 19 20  2  0  0  0
 19 21  1  0  0  0
 20 22  1  0  0  0
 21 23  2  0  0  0
 22 24  2  0  0  0
 23 24  1  0  0  0
 25 26  1  0  0  0
 26 27  1  0  0  0
 28 31  1  0  0  0
 28 32  1  0  0  0
M  END
>  <CHROM.0>
85.66768073,-77.89926616,-50.79124396,-146.63263975,101.62889953,25.11710010
114.04245473,-10.47201672

>  <CHROM.1>
-65.45452485,-162.46357491,-162.68978705,-162.18935605,-76.95392893,-65.58268313
103.98000701,-147.95678077,138.68970391,163.21475986,-3.05704740,56.74933090
-10.05400718,0.63468117,-0.60891401,0.98152546

>  <FORMUL>
      DPC    C20 H27 N3 O5

>  <HET>
 DPC  A 466      28

>  <HETNAM>
     DPC 5-ACETYLAMINO-4-AMINO-6-(PHENETHYL-PROPYL-CARBAMOYL)-5,
   2 DPC 6-DIHYDRO-4H-PYRAN-2-CARBOXYLIC ACID

>  <Name>
DPC.pdb

>  <RI>
1.06532e+07

>  <Rbt.Current_Directory>
/home/malgorzata/Desktop/rDOCK_IFD/Wyniki/11_neuraminidase

>  <Rbt.Executable>
rbdock ($Id: //depot/dev/client3/rdock/2013.1/src/exe/rbdock.cxx#4 $)

>  <Rbt.Library>
libRbt.so (2013.1, Build901 2013/11/27)

>  <Rbt.Parameter_File>
/home/malgorzata/Desktop/rDock_2013.1_src/data/scripts/soft_docking.prm

>  <Rbt.Receptor>
cavity.prm

>  <SCORE>
-56.7786

>  <SCORE.INTER>
-39.7185

>  <SCORE.INTER.CONST>
1

>  <SCORE.INTER.POLAR>
-6.17026

>  <SCORE.INTER.REPUL>
0

>  <SCORE.INTER.ROT>
9

>  <SCORE.INTER.VDW>
-33.1396

>  <SCORE.INTER.norm>
-1.41852

>  <SCORE.INTRA>
6.66902

>  <SCORE.INTRA.DIHEDRAL>
21.9135

>  <SCORE.INTRA.DIHEDRAL.0>
7.68839

>  <SCORE.INTRA.POLAR>
0

>  <SCORE.INTRA.POLAR.0>
0

>  <SCORE.INTRA.REPUL>
0

>  <SCORE.INTRA.REPUL.0>
0

>  <SCORE.INTRA.VDW>
2.28631

>  <SCORE.INTRA.VDW.0>
-2.73227

>  <SCORE.INTRA.norm>
0.238179

>  <SCORE.RESTR>
0

>  <SCORE.RESTR.CAVITY>
0

>  <SCORE.RESTR.norm>
0

>  <SCORE.SYSTEM>
-23.7291

>  <SCORE.SYSTEM.CONST>
0

>  <SCORE.SYSTEM.DIHEDRAL>
9.33679

>  <SCORE.SYSTEM.POLAR>
-6.17573

>  <SCORE.SYSTEM.REPUL>
0.0445052

>  <SCORE.SYSTEM.VDW>
-7.62255

>  <SCORE.SYSTEM.norm>
-0.847469

>  <SCORE.heavy>
28

>  <SCORE.norm>
-2.02781

$$$$
DPC.pdb
  rDOCK(R)          3D
libRbt.so/2013.1/901 2013/11/27
 32 33  0  0  0  0  0  0  0  0999 V2000
   -2.4872   63.1227   -3.0550 C   0  0  0  0  0  0
   -1.5430   62.5066   -2.5746 O   0  0  0  0  0  0
   -2.8271   64.1910   -2.5647 O   0  0  0  0  0  0
   -3.1118   62.6190   -4.2914 C   0  0  0  0  0  0
   -4.0169   63.3487   -4.9521 C   0  0  0  0  0  0
   -4.6090   62.8527   -6.2434 C   0  0  0  0  0  0
   -4.3720   61.3584   -6.4452 C   0  0  0  0  0  0
   -4.5654   61.0268   -7.8521 N   0  0  0  0  0  0
   -5.7139   60.5745   -8.3785 C   0  0  0  0  0  0
   -6.6912   60.3623   -7.6813 O   0  0  0  0  0  0
   -5.7426   60.3843   -9.9062 C   0  0  0  0  0  0
   -2.9363   61.0236   -6.0473 C   0  0  0  0  0  0
   -2.6726   61.4411   -4.7347 O   0  0  0  0  0  0
   -2.7571   59.5227   -6.0080 C   0  0  0  0  0  0
   -3.3352   59.0955   -5.3567 O   0  0  0  0  0  0
   -2.0094   58.9185   -6.9215 N   0  0  0  0  0  0
   -1.9669   57.4406   -6.8596 C   0  0  0  0  0  0
   -3.0952   56.7877   -7.6642 C   0  0  0  0  0  0
   -2.4988   55.7357   -8.5781 C   0  0  0  0  0  0
   -2.5254   54.3718   -8.2103 C   0  0  0  0  0  0
   -1.8841   56.1021   -9.7841 C   0  0  0  0  0  0
   -1.9136   53.3985   -9.0198 C   0  0  0  0  0  0
   -1.2760   55.1350  -10.5907 C   0  0  0  0  0  0
   -1.2752   53.7856  -10.2123 C   0  0  0  0  0  0
   -1.1932   59.6221   -7.9083 C   0  0  0  0  0  0
   -0.4152   60.7994   -7.2960 C   0  0  0  0  0  0
   -0.2866   62.0391   -8.2007 C   0  0  0  0  0  0
   -6.0206   63.1298   -6.2495 N   0  0  0  0  0  0
   -2.5275   64.4305   -1.7098 H   0  0  0  0  0  0
   -3.7989   61.1431   -8.4589 H   0  0  0  0  0  0
   -6.4153   62.9041   -5.3364 H   0  0  0  0  0  0
   -6.4752   62.5635   -6.9658 H   0  0  0  0  0  0
  1  2  2  0  0  0
  1  3  1  0  0  0
  1  4  1  0  0  0
  3 29  1  0  0  0
  4  5  2  0  0  0
  4 13  1  0  0  0
  5  6  1  0  0  0
  6  7  1  0  0  0
  6 28  1  0  0  0
  7  8  1  0  0  0
  7 12  1  0  0  0
  8  9  1  0  0  0
  8 30  1  0  0  0
  9 10  2  0  0  0
  9 11  1  0  0  0
 12 13  1  0  0  0
 12 14  1  0  0  0
 14 15  2  0  0  0
 14 16  1  0  0  0
 16 17  1  0  0  0
 16 25  1  0  0  0
 17 18  1  0  0  0
 18 19  1  0  0  0
 19 20  2  0  0  0
 19 21  1  0  0  0
 20 22  1  0  0  0
 21 23  2  0  0  0
 22 24  2  0  0  0
 23 24  1  0  0  0
 25 26  1  0  0  0
 26 27  1  0  0  0
 28 31  1  0  0  0
 28 32  1  0  0  0
M  END
>  <CHROM.0>
73.49231970,-34.52838940,-106.16725275,52.60231834,135.55440624,-111.80678209
-145.17554746,50.48805608

>  <CHROM.1>
-15.87689200,-170.70060461,-42.99783536,-94.54732585,-61.29351117,88.03332804
43.81522628,129.46013819,98.83133902,-143.05686651,-3.01729665,59.77812787
-6.85040814,-1.74991809,0.53778264,-2.49719329

>  <FORMUL>
      DPC    C20 H27 N3 O5

>  <HET>
 DPC  A 466      28

>  <HETNAM>
     DPC 5-ACETYLAMINO-4-AMINO-6-(PHENETHYL-PROPYL-CARBAMOYL)-5,
   2 DPC 6-DIHYDRO-4H-PYRAN-2-CARBOXYLIC ACID

>  <Name>
DPC.pdb

>  <RI>
1.06532e+07

>  <Rbt.Current_Directory>
/home/malgorzata/Desktop/rDOCK_IFD/Wyniki/11_neuraminidase

>  <Rbt.Executable>
rbdock ($Id: //depot/dev/client3/rdock/2013.1/src/exe/rbdock.cxx#4 $)

>  <Rbt.Library>
libRbt.so (2013.1, Build901 2013/11/27)

>  <Rbt.Parameter_File>
/home/malgorzata/Desktop/rDock_2013.1_src/data/scripts/soft_docking.prm

>  <Rbt.Receptor>
cavity.prm

>  <SCORE>
-45.5684

>  <SCORE.INTER>
-19.5429

>  <SCORE.INTER.CONST>
1

>  <SCORE.INTER.POLAR>
-3.408

>  <SCORE.INTER.REPUL>
0.260381

>  <SCORE.INTER.ROT>
9

>  <SCORE.INTER.VDW>
-23.6576

>  <SCORE.INTER.norm>
-0.697962

>  <SCORE.INTRA>
3.08866

>  <SCORE.INTRA.DIHEDRAL>
9.9758

>  <SCORE.INTRA.DIHEDRAL.0>
7.68839

>  <SCORE.INTRA.POLAR>
0

>  <SCORE.INTRA.POLAR.0>
0

>  <SCORE.INTRA.REPUL>
0

>  <SCORE.INTRA.REPUL.0>
0

>  <SCORE.INTRA.VDW>
1.0935

>  <SCORE.INTRA.VDW.0>
-2.73227

>  <SCORE.INTRA.norm>
0.110309

>  <SCORE.RESTR>
0

>  <SCORE.RESTR.CAVITY>
0

>  <SCORE.RESTR.norm>
0

>  <SCORE.SYSTEM>
-29.1141

>  <SCORE.SYSTEM.CONST>
0

>  <SCORE.SYSTEM.DIHEDRAL>
4.6214

>  <SCORE.SYSTEM.POLAR>
-7.34898

>  <SCORE.SYSTEM.VDW>
-6.43827

>  <SCORE.SYSTEM.norm>
-1.03979

>  <SCORE.heavy>
28

>  <SCORE.norm>
-1.62744

$$$$
DPC.pdb
  rDOCK(R)          3D
libRbt.so/2013.1/901 2013/11/27
 32 33  0  0  0  0  0  0  0  0999 V2000
   -4.0461   57.6067   -7.2284 C   0  0  0  0  0  0
   -4.5919   58.3306   -6.4039 O   0  0  0  0  0  0
   -3.2607   56.7460   -6.8546 O   0  0  0  0  0  0
   -4.4457   57.7104   -8.6434 C   0  0  0  0  0  0
   -5.6603   58.1534   -8.9849 C   0  0  0  0  0  0
   -6.0420   58.3099  -10.4319 C   0  0  0  0  0  0
   -5.0907   57.5585  -11.3594 C   0  0  0  0  0  0
   -5.2302   58.0786  -12.7147 N   0  0  0  0  0  0
   -5.4445   57.3239  -13.8033 C   0  0  0  0  0  0
   -5.4941   56.1078  -13.7325 O   0  0  0  0  0  0
   -5.6687   58.0755  -15.1282 C   0  0  0  0  0  0
   -3.6558   57.7793  -10.8862 C   0  0  0  0  0  0
   -3.5107   57.4043   -9.5427 O   0  0  0  0  0  0
   -2.7252   56.8544  -11.6377 C   0  0  0  0  0  0
   -2.2050   57.3175  -12.3129 O   0  0  0  0  0  0
   -2.5637   55.6018  -11.2335 N   0  0  0  0  0  0
   -1.5645   54.7989  -11.9729 C   0  0  0  0  0  0
   -0.1418   55.0004  -11.4418 C   0  0  0  0  0  0
   -0.2106   55.2850   -9.9545 C   0  0  0  0  0  0
    0.2572   56.5149   -9.4401 C   0  0  0  0  0  0
   -0.7081   54.3219   -9.0649 C   0  0  0  0  0  0
    0.2601   56.7587   -8.0554 C   0  0  0  0  0  0
   -0.7066   54.5633   -7.6874 C   0  0  0  0  0  0
   -0.2150   55.7708   -7.1734 C   0  0  0  0  0  0
   -3.3520   54.9742  -10.1753 C   0  0  0  0  0  0
   -4.5773   54.2221  -10.7223 C   0  0  0  0  0  0
   -5.8443   54.3157   -9.8517 C   0  0  0  0  0  0
   -7.3860   57.8316  -10.6171 N   0  0  0  0  0  0
   -2.7347   56.8908   -6.0928 H   0  0  0  0  0  0
   -5.1623   59.0527  -12.8398 H   0  0  0  0  0  0
   -7.3696   56.9806  -11.1792 H   0  0  0  0  0  0
   -7.9377   58.5441  -11.0950 H   0  0  0  0  0  0
  1  2  2  0  0  0
  1  3  1  0  0  0
  1  4  1  0  0  0
  3 29  1  0  0  0
  4  5  2  0  0  0
  4 13  1  0  0  0
  5  6  1  0  0  0
  6  7  1  0  0  0
  6 28  1  0  0  0
  7  8  1  0  0  0
  7 12  1  0  0  0
  8  9  1  0  0  0
  8 30  1  0  0  0
  9 10  2  0  0  0
  9 11  1  0  0  0
 12 13  1  0  0  0
 12 14  1  0  0  0
 14 15  2  0  0  0
 14 16  1  0  0  0
 16 17  1  0  0  0
 16 25  1  0  0  0
 17 18  1  0  0  0
 18 19  1  0  0  0
 19 20  2  0  0  0
 19 21  1  0  0  0
 20 22  1  0  0  0
 21 23  2  0  0  0
 22 24  2  0  0  0
 23 24  1  0  0  0
 25 26  1  0  0  0
 26 27  1  0  0  0
 28 31  1  0  0  0
 28 32  1  0  0  0
M  END
>  <CHROM.0>
157.55150332,43.49955842,-125.82683862,-151.70196834,78.47591555,-130.35485672
144.90349332,47.26511539

>  <CHROM.1>
-32.23449475,-25.50838952,-111.75383578,-128.44467160,105.22072837,84.82765626
93.15438919,31.43313334,-118.13597681,-142.61881007,-3.42175244,56.56213213
-10.27537291,0.63855698,-0.44148839,1.42595784

>  <FORMUL>
      DPC    C20 H27 N3 O5

>  <HET>
 DPC  A 466      28

>  <HETNAM>
     DPC 5-ACETYLAMINO-4-AMINO-6-(PHENETHYL-PROPYL-CARBAMOYL)-5,
   2 DPC 6-DIHYDRO-4H-PYRAN-2-CARBOXYLIC ACID

>  <Name>
DPC.pdb

>  <RI>
1.06532e+07

>  <Rbt.Current_Directory>
/home/malgorzata/Desktop/rDOCK_IFD/Wyniki/11_neuraminidase

>  <Rbt.Executable>
rbdock ($Id: //depot/dev/client3/rdock/2013.1/src/exe/rbdock.cxx#4 $)

>  <Rbt.Library>
libRbt.so (2013.1, Build901 2013/11/27)

>  <Rbt.Parameter_File>
/home/malgorzata/Desktop/rDock_2013.1_src/data/scripts/soft_docking.prm

>  <Rbt.Receptor>
cavity.prm

>  <SCORE>
-46.6539

>  <SCORE.INTER>
-25.1954

>  <SCORE.INTER.CONST>
1

>  <SCORE.INTER.POLAR>
-3.76579

>  <SCORE.INTER.REPUL>
0.508538

>  <SCORE.INTER.ROT>
9

>  <SCORE.INTER.VDW>
-29.3345

>  <SCORE.INTER.norm>
-0.899837

>  <SCORE.INTRA>
2.32535

>  <SCORE.INTRA.DIHEDRAL>
14.8431

>  <SCORE.INTRA.DIHEDRAL.0>
7.68839

>  <SCORE.INTRA.POLAR>
0

>  <SCORE.INTRA.POLAR.0>
0

>  <SCORE.INTRA.REPUL>
0

>  <SCORE.INTRA.REPUL.0>
0

>  <SCORE.INTRA.VDW>
-0.643267

>  <SCORE.INTRA.VDW.0>
-2.73227

>  <SCORE.INTRA.norm>
0.0830482

>  <SCORE.RESTR>
0

>  <SCORE.RESTR.CAVITY>
0

>  <SCORE.RESTR.norm>
0

>  <SCORE.SYSTEM>
-23.7839

>  <SCORE.SYSTEM.CONST>
0

>  <SCORE.SYSTEM.DIHEDRAL>
6.38632

>  <SCORE.SYSTEM.POLAR>
-5.86074

>  <SCORE.SYSTEM.VDW>
-7.05048

>  <SCORE.SYSTEM.norm>
-0.849423

>  <SCORE.heavy>
28

>  <SCORE.norm>
-1.66621

$$$$
DPC.pdb
  rDOCK(R)          3D
libRbt.so/2013.1/901 2013/11/27
 32 33  0  0  0  0  0  0  0  0999 V2000
   -1.6187   59.3706   -5.5223 C   0  0  0  0  0  0
   -1.3728   60.3802   -4.8725 O   0  0  0  0  0  0
   -0.8891   58.3931   -5.4239 O   0  0  0  0  0  0
   -2.8612   59.3172   -6.3133 C   0  0  0  0  0  0
   -3.6693   60.3793   -6.3985 C   0  0  0  0  0  0
   -4.9071   60.3362   -7.2528 C   0  0  0  0  0  0
   -5.2948   58.9081   -7.6273 C   0  0  0  0  0  0
   -6.2002   58.9399   -8.7701 N   0  0  0  0  0  0
   -5.8846   59.4260   -9.9803 C   0  0  0  0  0  0
   -4.7962   59.9305  -10.1973 O   0  0  0  0  0  0
   -6.9480   59.2703  -11.0829 C   0  0  0  0  0  0
   -4.0354   58.1344   -8.0108 C   0  0  0  0  0  0
   -3.0861   58.1849   -6.9798 O   0  0  0  0  0  0
   -4.3643   56.6650   -8.1479 C   0  0  0  0  0  0
   -5.1375   56.4057   -7.6226 O   0  0  0  0  0  0
   -3.7323   55.9236   -9.0476 N   0  0  0  0  0  0
   -4.1845   54.5203   -9.1740 C   0  0  0  0  0  0
   -5.2871   54.3523  -10.2241 C   0  0  0  0  0  0
   -5.6850   52.8910  -10.2862 C   0  0  0  0  0  0
   -4.6965   51.8837  -10.3541 C   0  0  0  0  0  0
   -7.0368   52.5187  -10.3100 C   0  0  0  0  0  0
   -5.0584   50.5310  -10.4812 C   0  0  0  0  0  0
   -7.3982   51.1736  -10.4354 C   0  0  0  0  0  0
   -6.4187   50.1760  -10.5333 C   0  0  0  0  0  0
   -2.5982   56.3894   -9.8426 C   0  0  0  0  0  0
   -1.5863   55.2687  -10.1366 C   0  0  0  0  0  0
   -1.5246   54.8126  -11.6063 C   0  0  0  0  0  0
   -5.9885   60.9674   -6.5445 N   0  0  0  0  0  0
   -1.1662   57.5656   -5.7652 H   0  0  0  0  0  0
   -7.1075   58.5790   -8.6447 H   0  0  0  0  0  0
   -6.4383   60.2857   -5.9334 H   0  0  0  0  0  0
   -6.6697   61.3260   -7.2136 H   0  0  0  0  0  0
  1  2  2  0  0  0
  1  3  1  0  0  0
  1  4  1  0  0  0
  3 29  1  0  0  0
  4  5  2  0  0  0
  4 13  1  0  0  0
  5  6  1  0  0  0
  6  7  1  0  0  0
  6 28  1  0  0  0
  7  8  1  0  0  0
  7 12  1  0  0  0
  8  9  1  0  0  0
  8 30  1  0  0  0
  9 10  2  0  0  0
  9 11  1  0  0  0
 12 13  1  0  0  0
 12 14  1  0  0  0
 14 15  2  0  0  0
 14 16  1  0  0  0
 16 17  1  0  0  0
 16 25  1  0  0  0
 17 18  1  0  0  0
 18 19  1  0  0  0
 19 20  2  0  0  0
 19 21  1  0  0  0
 20 22  1  0  0  0
 21 23  2  0  0  0
 22 24  2  0  0  0
 23 24  1  0  0  0
 25 26  1  0  0  0
 26 27  1  0  0  0
 28 31  1  0  0  0
 28 32  1  0  0  0
M  END
>  <CHROM.0>
78.90053274,64.92551395,-45.34933782,64.00135556,74.88023477,172.07731494
-174.29762111,27.94968298

>  <CHROM.1>
166.74132256,4.40429180,-85.69060557,61.98709213,-25.20745117,90.97884673
146.24290505,179.92692580,-47.12967803,110.54439488,-4.32605574,56.72249429
-8.64605341,-1.31152223,0.46514688,-2.80239374

>  <FORMUL>
      DPC    C20 H27 N3 O5

>  <HET>
 DPC  A 466      28

>  <HETNAM>
     DPC 5-ACETYLAMINO-4-AMINO-6-(PHENETHYL-PROPYL-CARBAMOYL)-5,
   2 DPC 6-DIHYDRO-4H-PYRAN-2-CARBOXYLIC ACID

>  <Name>
DPC.pdb

>  <RI>
1.06532e+07

>  <Rbt.Current_Directory>
/home/malgorzata/Desktop/rDOCK_IFD/Wyniki/11_neuraminidase

>  <Rbt.Executable>
rbdock ($Id: //depot/dev/client3/rdock/2013.1/src/exe/rbdock.cxx#4 $)

>  <Rbt.Library>
libRbt.so (2013.1, Build901 2013/11/27)

>  <Rbt.Parameter_File>
/home/malgorzata/Desktop/rDock_2013.1_src/data/scripts/soft_docking.prm

>  <Rbt.Receptor>
cavity.prm

>  <SCORE>
-54.0937

>  <SCORE.INTER>
-29.0651

>  <SCORE.INTER.CONST>
1

>  <SCORE.INTER.POLAR>
-5.4557

>  <SCORE.INTER.REPUL>
0.408672

>  <SCORE.INTER.ROT>
9

>  <SCORE.INTER.VDW>
-26.959

>  <SCORE.INTER.norm>
-1.03804

>  <SCORE.INTRA>
4.72156

>  <SCORE.INTRA.DIHEDRAL>
5.36438

>  <SCORE.INTRA.DIHEDRAL.0>
7.68839

>  <SCORE.INTRA.POLAR>
-0.00191063

>  <SCORE.INTRA.POLAR.0>
0

>  <SCORE.INTRA.REPUL>
0

>  <SCORE.INTRA.REPUL.0>
0

>  <SCORE.INTRA.VDW>
3.65518

>  <SCORE.INTRA.VDW.0>
-2.73227

>  <SCORE.INTRA.norm>
0.168627

>  <SCORE.RESTR>
0.692841

>  <SCORE.RESTR.CAVITY>
0.692841

>  <SCORE.RESTR.norm>
0.0247443

>  <SCORE.SYSTEM>
-30.4431

>  <SCORE.SYSTEM.CONST>
0

>  <SCORE.SYSTEM.DIHEDRAL>
4.05065

>  <SCORE.SYSTEM.POLAR>
-7.26895

>  <SCORE.SYSTEM.VDW>
-7.75398

>  <SCORE.SYSTEM.norm>
-1.08725

>  <SCORE.heavy>
28

>  <SCORE.norm>
-1.93192

$$$$
DPC.pdb
  rDOCK(R)          3D
libRbt.so/2013.1/901 2013/11/27
 32 33  0  0  0  0  0  0  0  0999 V2000
   -7.5179   58.1563  -10.8323 C   0  0  0  0  0  0
   -7.5828   57.5780  -11.9108 O   0  0  0  0  0  0
   -8.4377   58.8803  -10.4757 O   0  0  0  0  0  0
   -6.3853   57.8657   -9.9349 C   0  0  0  0  0  0
   -6.1174   58.6527   -8.8875 C   0  0  0  0  0  0
   -4.9944   58.3191   -7.9433 C   0  0  0  0  0  0
   -4.0322   57.2941   -8.5377 C   0  0  0  0  0  0
   -3.2450   56.6957   -7.4658 N   0  0  0  0  0  0
   -2.0293   57.1172   -7.0853 C   0  0  0  0  0  0
   -1.4659   58.0323   -7.6612 O   0  0  0  0  0  0
   -1.4104   56.4173   -5.8614 C   0  0  0  0  0  0
   -4.8379   56.2002   -9.2346 C   0  0  0  0  0  0
   -5.7018   56.7507  -10.1924 O   0  0  0  0  0  0
   -3.9077   55.3141  -10.0320 C   0  0  0  0  0  0
   -3.1947   55.8129  -10.4608 O   0  0  0  0  0  0
   -4.0149   53.9948   -9.9514 N   0  0  0  0  0  0
   -3.0038   53.2092  -10.6932 C   0  0  0  0  0  0
   -2.0374   52.4702   -9.7622 C   0  0  0  0  0  0
   -0.6185   52.7148  -10.2359 C   0  0  0  0  0  0
   -0.3452   52.8945  -11.6105 C   0  0  0  0  0  0
    0.4463   52.7341   -9.3236 C   0  0  0  0  0  0
    0.9760   53.0532  -12.0644 C   0  0  0  0  0  0
    1.7608   52.8927   -9.7735 C   0  0  0  0  0  0
    2.0362   53.0409  -11.1397 C   0  0  0  0  0  0
   -5.0924   53.3017   -9.2488 C   0  0  0  0  0  0
   -6.0340   52.5536  -10.2079 C   0  0  0  0  0  0
   -7.2966   53.3315  -10.6236 C   0  0  0  0  0  0
   -4.2831   59.5257   -7.6152 N   0  0  0  0  0  0
   -8.6559   58.9472   -9.5669 H   0  0  0  0  0  0
   -3.6333   55.9280   -6.9873 H   0  0  0  0  0  0
   -3.7262   59.8209   -8.4171 H   0  0  0  0  0  0
   -3.6685   59.3524   -6.8197 H   0  0  0  0  0  0
  1  2  2  0  0  0
  1  3  1  0  0  0
  1  4  1  0  0  0
  3 29  1  0  0  0
  4  5  2  0  0  0
  4 13  1  0  0  0
  5  6  1  0  0  0
  6  7  1  0  0  0
  6 28  1  0  0  0
  7  8  1  0  0  0
  7 12  1  0  0  0
  8  9  1  0  0  0
  8 30  1  0  0  0
  9 10  2  0  0  0
  9 11  1  0  0  0
 12 13  1  0  0  0
 12 14  1  0  0  0
 14 15  2  0  0  0
 14 16  1  0  0  0
 16 17  1  0  0  0
 16 25  1  0  0  0
 17 18  1  0  0  0
 18 19  1  0  0  0
 19 20  2  0  0  0
 19 21  1  0  0  0
 20 22  1  0  0  0
 21 23  2  0  0  0
 22 24  2  0  0  0
 23 24  1  0  0  0
 25 26  1  0  0  0
 26 27  1  0  0  0
 28 31  1  0  0  0
 28 32  1  0  0  0
M  END
>  <CHROM.0>
-48.28052462,68.23888244,-48.58696595,-10.75322776,-14.13234041,168.31775962
-134.20886253,48.42334636

>  <CHROM.1>
146.47691696,166.19040055,-73.11827309,-94.60866238,-38.20382401,110.97344674
111.55805807,-132.17806244,-31.83600540,-94.99708322,-3.60440715,55.59754304
-9.58240851,2.59335361,-0.31284613,0.57682934

>  <FORMUL>
      DPC    C20 H27 N3 O5

>  <HET>
 DPC  A 466      28

>  <HETNAM>
     DPC 5-ACETYLAMINO-4-AMINO-6-(PHENETHYL-PROPYL-CARBAMOYL)-5,
   2 DPC 6-DIHYDRO-4H-PYRAN-2-CARBOXYLIC ACID

>  <Name>
DPC.pdb

>  <RI>
1.06532e+07

>  <Rbt.Current_Directory>
/home/malgorzata/Desktop/rDOCK_IFD/Wyniki/11_neuraminidase

>  <Rbt.Executable>
rbdock ($Id: //depot/dev/client3/rdock/2013.1/src/exe/rbdock.cxx#4 $)

>  <Rbt.Library>
libRbt.so (2013.1, Build901 2013/11/27)

>  <Rbt.Parameter_File>
/home/malgorzata/Desktop/rDock_2013.1_src/data/scripts/soft_docking.prm

>  <Rbt.Receptor>
cavity.prm

>  <SCORE>
-51.1455

>  <SCORE.INTER>
-30.2315

>  <SCORE.INTER.CONST>
1

>  <SCORE.INTER.POLAR>
-3.99581

>  <SCORE.INTER.REPUL>
0

>  <SCORE.INTER.ROT>
9

>  <SCORE.INTER.VDW>
-31.0457

>  <SCORE.INTER.norm>
-1.0797

>  <SCORE.INTRA>
4.57074

>  <SCORE.INTRA.DIHEDRAL>
14.6831

>  <SCORE.INTRA.DIHEDRAL.0>
7.68839

>  <SCORE.INTRA.POLAR>
0

>  <SCORE.INTRA.POLAR.0>
0

>  <SCORE.INTRA.REPUL>
0

>  <SCORE.INTRA.REPUL.0>
0

>  <SCORE.INTRA.VDW>
1.63413

>  <SCORE.INTRA.VDW.0>
-2.73227

>  <SCORE.INTRA.norm>
0.163241

>  <SCORE.RESTR>
0.291154

>  <SCORE.RESTR.CAVITY>
0.291154

>  <SCORE.RESTR.norm>
0.0103983

>  <SCORE.SYSTEM>
-25.776

>  <SCORE.SYSTEM.CONST>
0

>  <SCORE.SYSTEM.DIHEDRAL>
5.3498

>  <SCORE.SYSTEM.POLAR>
-6.28241

>  <SCORE.SYSTEM.VDW>
-7.09066

>  <SCORE.SYSTEM.norm>
-0.92057

>  <SCORE.heavy>
28

>  <SCORE.norm>
-1.82663

$$$$
