DPC.pdb
  rDOCK(R)          3D
libRbt.so/2013.1/901 2013/11/27
 32 33  0  0  0  0  0  0  0  0999 V2000
   -2.0171   59.1718   -6.4892 C   0  0  0  0  0  0
   -3.0932   59.2241   -5.9051 O   0  0  0  0  0  0
   -1.1287   59.9605   -6.1960 O   0  0  0  0  0  0
   -1.7782   58.0765   -7.4462 C   0  0  0  0  0  0
   -0.7203   57.2686   -7.3177 C   0  0  0  0  0  0
   -0.5129   56.1182   -8.2650 C   0  0  0  0  0  0
   -1.3643   56.2531   -9.5247 C   0  0  0  0  0  0
   -1.4610   54.9544  -10.1808 N   0  0  0  0  0  0
   -0.6763   54.5498  -11.1913 C   0  0  0  0  0  0
    0.1688   55.2852  -11.6721 O   0  0  0  0  0  0
   -0.8697   53.1008  -11.6749 C   0  0  0  0  0  0
   -2.7646   56.7184   -9.1319 C   0  0  0  0  0  0
   -2.7051   57.9064   -8.3889 O   0  0  0  0  0  0
   -3.5433   57.0898  -10.3736 C   0  0  0  0  0  0
   -3.1117   57.7896  -10.8885 O   0  0  0  0  0  0
   -4.5911   56.3656  -10.7425 N   0  0  0  0  0  0
   -5.2342   56.7475  -12.0194 C   0  0  0  0  0  0
   -6.3573   57.7713  -11.8266 C   0  0  0  0  0  0
   -5.8099   59.1566  -12.1076 C   0  0  0  0  0  0
   -6.1672   60.2468  -11.2829 C   0  0  0  0  0  0
   -4.9689   59.3834  -13.2065 C   0  0  0  0  0  0
   -5.7188   61.5464  -11.5777 C   0  0  0  0  0  0
   -4.5214   60.6752  -13.5004 C   0  0  0  0  0  0
   -4.8995   61.7623  -12.7008 C   0  0  0  0  0  0
   -5.1679   55.2903   -9.9387 C   0  0  0  0  0  0
   -5.7921   55.8045   -8.6301 C   0  0  0  0  0  0
   -6.9242   54.9307   -8.0583 C   0  0  0  0  0  0
    0.8794   56.0479   -8.6203 N   0  0  0  0  0  0
   -1.2400   60.5430   -5.4706 H   0  0  0  0  0  0
   -2.1510   54.3300   -9.8595 H   0  0  0  0  0  0
    1.0993   55.1078   -8.9493 H   0  0  0  0  0  0
    1.4501   56.2644   -7.8031 H   0  0  0  0  0  0
  1  2  2  0  0  0
  1  3  1  0  0  0
  1  4  1  0  0  0
  3 29  1  0  0  0
  4  5  2  0  0  0
  4 13  1  0  0  0
  5  6  1  0  0  0
  6  7  1  0  0  0
  6 28  1  0  0  0
  7  8  1  0  0  0
  7 12  1  0  0  0
  8  9  1  0  0  0
  8 30  1  0  0  0
  9 10  2  0  0  0
  9 11  1  0  0  0
 12 13  1  0  0  0
 12 14  1  0  0  0
 14 15  2  0  0  0
 14 16  1  0  0  0
 16 17  1  0  0  0
 16 25  1  0  0  0
 17 18  1  0  0  0
 18 19  1  0  0  0
 19 20  2  0  0  0
 19 21  1  0  0  0
 20 22  1  0  0  0
 21 23  2  0  0  0
 22 24  2  0  0  0
 23 24  1  0  0  0
 25 26  1  0  0  0
 26 27  1  0  0  0
 28 31  1  0  0  0
 28 32  1  0  0  0
M  END
>  <CHROM.0>
148.14615222,-95.29181565,-27.18876342,64.23082679,-179.61805827,129.07995264
-178.39394871,-9.80123009

>  <CHROM.1>
6.17727725,-124.55868838,158.42274152,-96.00457399,-58.55754554,-90.69590837
65.86296781,97.58923148,-138.47591166,153.63418696,-3.19078482,57.42193689
-9.89803088,-0.06469030,-0.77777740,0.72885145

>  <FORMUL>
      DPC    C20 H27 N3 O5

>  <HET>
 DPC  A 466      28

>  <HETNAM>
     DPC 5-ACETYLAMINO-4-AMINO-6-(PHENETHYL-PROPYL-CARBAMOYL)-5,
   2 DPC 6-DIHYDRO-4H-PYRAN-2-CARBOXYLIC ACID

>  <Name>
DPC.pdb

>  <RI>
3.88728e+07

>  <Rbt.Current_Directory>
/home/malgorzata/Desktop/rDOCK_IFD/Wyniki/11_neuraminidase

>  <Rbt.Executable>
rbdock ($Id: //depot/dev/client3/rdock/2013.1/src/exe/rbdock.cxx#4 $)

>  <Rbt.Library>
libRbt.so (2013.1, Build901 2013/11/27)

>  <Rbt.Parameter_File>
/home/malgorzata/Desktop/rDock_2013.1_src/data/scripts/soft_docking.prm

>  <Rbt.Receptor>
cavity.prm

>  <SCORE>
-50.2141

>  <SCORE.INTER>
-25.6624

>  <SCORE.INTER.CONST>
1

>  <SCORE.INTER.POLAR>
-4.04478

>  <SCORE.INTER.REPUL>
0.0779

>  <SCORE.INTER.ROT>
9

>  <SCORE.INTER.VDW>
-26.6997

>  <SCORE.INTER.norm>
-0.916516

>  <SCORE.INTRA>
2.2012

>  <SCORE.INTRA.DIHEDRAL>
13.1965

>  <SCORE.INTRA.DIHEDRAL.0>
7.68839

>  <SCORE.INTRA.POLAR>
0

>  <SCORE.INTRA.POLAR.0>
0

>  <SCORE.INTRA.REPUL>
0

>  <SCORE.INTRA.REPUL.0>
0

>  <SCORE.INTRA.VDW>
-0.438102

>  <SCORE.INTRA.VDW.0>
-2.73227

>  <SCORE.INTRA.norm>
0.0786142

>  <SCORE.RESTR>
0

>  <SCORE.RESTR.CAVITY>
0

>  <SCORE.RESTR.norm>
0

>  <SCORE.SYSTEM>
-26.7529

>  <SCORE.SYSTEM.CONST>
0

>  <SCORE.SYSTEM.DIHEDRAL>
6.4343

>  <SCORE.SYSTEM.POLAR>
-6.99284

>  <SCORE.SYSTEM.REPUL>
0.0594198

>  <SCORE.SYSTEM.VDW>
-6.49144

>  <SCORE.SYSTEM.norm>
-0.955459

>  <SCORE.heavy>
28

>  <SCORE.norm>
-1.79336

$$$$
DPC.pdb
  rDOCK(R)          3D
libRbt.so/2013.1/901 2013/11/27
 32 33  0  0  0  0  0  0  0  0999 V2000
   -2.9688   59.3259   -6.7981 C   0  0  0  0  0  0
   -3.0867   60.2560   -7.5874 O   0  0  0  0  0  0
   -3.6735   59.2855   -5.7986 O   0  0  0  0  0  0
   -2.0649   58.2125   -7.1384 C   0  0  0  0  0  0
   -0.9918   57.9430   -6.3876 C   0  0  0  0  0  0
   -0.1047   56.7707   -6.7083 C   0  0  0  0  0  0
   -0.3391   56.2454   -8.1222 C   0  0  0  0  0  0
    0.1997   54.8944   -8.2284 N   0  0  0  0  0  0
    0.8549   54.4161   -9.2973 C   0  0  0  0  0  0
    1.0086   55.0904  -10.3013 O   0  0  0  0  0  0
    1.4373   52.9966   -9.1687 C   0  0  0  0  0  0
   -1.8407   56.2059   -8.3962 C   0  0  0  0  0  0
   -2.4195   57.4655   -8.1839 O   0  0  0  0  0  0
   -2.0822   55.9230   -9.8618 C   0  0  0  0  0  0
   -1.3733   56.2648  -10.4289 O   0  0  0  0  0  0
   -3.0797   55.1307  -10.2303 N   0  0  0  0  0  0
   -3.1824   54.8369  -11.6770 C   0  0  0  0  0  0
   -4.6025   55.0361  -12.2160 C   0  0  0  0  0  0
   -4.9742   56.4998  -12.0859 C   0  0  0  0  0  0
   -4.5424   57.4352  -13.0528 C   0  0  0  0  0  0
   -5.7226   56.9525  -10.9898 C   0  0  0  0  0  0
   -4.8248   58.8044  -12.9026 C   0  0  0  0  0  0
   -6.0050   58.3138  -10.8395 C   0  0  0  0  0  0
   -5.5516   59.2466  -11.7821 C   0  0  0  0  0  0
   -4.0934   54.6102   -9.3156 C   0  0  0  0  0  0
   -4.1226   53.0725   -9.2837 C   0  0  0  0  0  0
   -4.4936   52.3978  -10.6176 C   0  0  0  0  0  0
    1.2698   57.1664   -6.5547 N   0  0  0  0  0  0
   -3.7147   58.5023   -5.2858 H   0  0  0  0  0  0
    0.0738   54.2903   -7.4613 H   0  0  0  0  0  0
    1.3815   58.1332   -6.8601 H   0  0  0  0  0  0
    1.8635   56.5602   -7.1208 H   0  0  0  0  0  0
  1  2  2  0  0  0
  1  3  1  0  0  0
  1  4  1  0  0  0
  3 29  1  0  0  0
  4  5  2  0  0  0
  4 13  1  0  0  0
  5  6  1  0  0  0
  6  7  1  0  0  0
  6 28  1  0  0  0
  7  8  1  0  0  0
  7 12  1  0  0  0
  8  9  1  0  0  0
  8 30  1  0  0  0
  9 10  2  0  0  0
  9 11  1  0  0  0
 12 13  1  0  0  0
 12 14  1  0  0  0
 14 15  2  0  0  0
 14 16  1  0  0  0
 16 17  1  0  0  0
 16 25  1  0  0  0
 17 18  1  0  0  0
 18 19  1  0  0  0
 19 20  2  0  0  0
 19 21  1  0  0  0
 20 22  1  0  0  0
 21 23  2  0  0  0
 22 24  2  0  0  0
 23 24  1  0  0  0
 25 26  1  0  0  0
 26 27  1  0  0  0
 28 31  1  0  0  0
 28 32  1  0  0  0
M  END
>  <CHROM.0>
40.34523749,8.87440679,89.90094186,-101.93053020,72.40822359,-70.28651837
-79.13408285,23.26160418

>  <CHROM.1>
167.64127623,117.18566962,-36.24300695,-140.36648530,-30.17381012,-131.41339056
-120.76996054,64.09888575,81.58134862,-62.89549104,-2.49211449,56.43661772
-9.37551050,0.29755463,-0.61557548,0.63802988

>  <FORMUL>
      DPC    C20 H27 N3 O5

>  <HET>
 DPC  A 466      28

>  <HETNAM>
     DPC 5-ACETYLAMINO-4-AMINO-6-(PHENETHYL-PROPYL-CARBAMOYL)-5,
   2 DPC 6-DIHYDRO-4H-PYRAN-2-CARBOXYLIC ACID

>  <Name>
DPC.pdb

>  <RI>
3.88728e+07

>  <Rbt.Current_Directory>
/home/malgorzata/Desktop/rDOCK_IFD/Wyniki/11_neuraminidase

>  <Rbt.Executable>
rbdock ($Id: //depot/dev/client3/rdock/2013.1/src/exe/rbdock.cxx#4 $)

>  <Rbt.Library>
libRbt.so (2013.1, Build901 2013/11/27)

>  <Rbt.Parameter_File>
/home/malgorzata/Desktop/rDock_2013.1_src/data/scripts/soft_docking.prm

>  <Rbt.Receptor>
cavity.prm

>  <SCORE>
-48.1485

>  <SCORE.INTER>
-31.7511

>  <SCORE.INTER.CONST>
1

>  <SCORE.INTER.POLAR>
-5.20099

>  <SCORE.INTER.REPUL>
0.116555

>  <SCORE.INTER.ROT>
9

>  <SCORE.INTER.VDW>
-29.0505

>  <SCORE.INTER.norm>
-1.13397

>  <SCORE.INTRA>
5.81031

>  <SCORE.INTRA.DIHEDRAL>
9.73785

>  <SCORE.INTRA.DIHEDRAL.0>
7.68839

>  <SCORE.INTRA.POLAR>
0

>  <SCORE.INTRA.POLAR.0>
0

>  <SCORE.INTRA.REPUL>
0

>  <SCORE.INTRA.REPUL.0>
0

>  <SCORE.INTRA.VDW>
3.86274

>  <SCORE.INTRA.VDW.0>
-2.73227

>  <SCORE.INTRA.norm>
0.207511

>  <SCORE.RESTR>
0

>  <SCORE.RESTR.CAVITY>
0

>  <SCORE.RESTR.norm>
0

>  <SCORE.SYSTEM>
-22.2077

>  <SCORE.SYSTEM.CONST>
0

>  <SCORE.SYSTEM.DIHEDRAL>
8.88233

>  <SCORE.SYSTEM.POLAR>
-7.07623

>  <SCORE.SYSTEM.REPUL>
0.601265

>  <SCORE.SYSTEM.VDW>
-5.59605

>  <SCORE.SYSTEM.norm>
-0.793134

>  <SCORE.heavy>
28

>  <SCORE.norm>
-1.71959

$$$$
DPC.pdb
  rDOCK(R)          3D
libRbt.so/2013.1/901 2013/11/27
 32 33  0  0  0  0  0  0  0  0999 V2000
   -2.6279   58.8623   -5.6150 C   0  0  0  0  0  0
   -2.9112   59.9909   -5.9997 O   0  0  0  0  0  0
   -2.8746   58.5345   -4.4622 O   0  0  0  0  0  0
   -2.1091   57.8863   -6.5900 C   0  0  0  0  0  0
   -0.9279   57.2880   -6.4033 C   0  0  0  0  0  0
   -0.4299   56.2514   -7.3735 C   0  0  0  0  0  0
   -1.1926   56.2910   -8.6951 C   0  0  0  0  0  0
   -0.9856   55.0354   -9.4073 N   0  0  0  0  0  0
    0.2153   54.5149   -9.7030 C   0  0  0  0  0  0
    1.2471   55.1013   -9.4240 O   0  0  0  0  0  0
    0.2184   53.1257  -10.3670 C   0  0  0  0  0  0
   -2.6823   56.4599   -8.4055 C   0  0  0  0  0  0
   -2.9108   57.5951   -7.6144 O   0  0  0  0  0  0
   -3.4211   56.7441   -9.6938 C   0  0  0  0  0  0
   -2.9598   57.3886  -10.2533 O   0  0  0  0  0  0
   -4.4772   56.0157  -10.0290 N   0  0  0  0  0  0
   -5.0793   56.3044  -11.3496 C   0  0  0  0  0  0
   -6.0805   57.4626  -11.2965 C   0  0  0  0  0  0
   -6.5858   57.7370  -12.6990 C   0  0  0  0  0  0
   -5.8414   58.5536  -13.5795 C   0  0  0  0  0  0
   -7.8123   57.2130  -13.1321 C   0  0  0  0  0  0
   -6.3367   58.8685  -14.8572 C   0  0  0  0  0  0
   -8.3057   57.5246  -14.4029 C   0  0  0  0  0  0
   -7.5826   58.3590  -15.2661 C   0  0  0  0  0  0
   -5.0999   55.0245   -9.1544 C   0  0  0  0  0  0
   -5.3234   53.6758   -9.8597 C   0  0  0  0  0  0
   -4.1671   52.6675   -9.7238 C   0  0  0  0  0  0
    0.9726   56.4661   -7.6110 N   0  0  0  0  0  0
   -3.4547   59.0542   -3.9413 H   0  0  0  0  0  0
   -1.7838   54.5339   -9.6913 H   0  0  0  0  0  0
    1.5126   55.7426   -7.1362 H   0  0  0  0  0  0
    1.2419   57.3821   -7.2520 H   0  0  0  0  0  0
  1  2  2  0  0  0
  1  3  1  0  0  0
  1  4  1  0  0  0
  3 29  1  0  0  0
  4  5  2  0  0  0
  4 13  1  0  0  0
  5  6  1  0  0  0
  6  7  1  0  0  0
  6 28  1  0  0  0
  7  8  1  0  0  0
  7 12  1  0  0  0
  8  9  1  0  0  0
  8 30  1  0  0  0
  9 10  2  0  0  0
  9 11  1  0  0  0
 12 13  1  0  0  0
 12 14  1  0  0  0
 14 15  2  0  0  0
 14 16  1  0  0  0
 16 17  1  0  0  0
 16 25  1  0  0  0
 17 18  1  0  0  0
 18 19  1  0  0  0
 19 20  2  0  0  0
 19 21  1  0  0  0
 20 22  1  0  0  0
 21 23  2  0  0  0
 22 24  2  0  0  0
 23 24  1  0  0  0
 25 26  1  0  0  0
 26 27  1  0  0  0
 28 31  1  0  0  0
 28 32  1  0  0  0
M  END
>  <CHROM.0>
-175.46094316,-113.87280872,-10.22505149,-175.03138204,11.06177898,174.54909535
-172.40371054,-119.67240416

>  <CHROM.1>
14.76203165,123.21800065,106.62242886,-54.23996196,-43.70644850,-84.95976145
-130.69659741,176.87805574,-83.52011603,91.00557097,-3.34772609,56.65392248
-9.65221843,0.50925559,-0.65550789,0.88380408

>  <FORMUL>
      DPC    C20 H27 N3 O5

>  <HET>
 DPC  A 466      28

>  <HETNAM>
     DPC 5-ACETYLAMINO-4-AMINO-6-(PHENETHYL-PROPYL-CARBAMOYL)-5,
   2 DPC 6-DIHYDRO-4H-PYRAN-2-CARBOXYLIC ACID

>  <Name>
DPC.pdb

>  <RI>
3.88728e+07

>  <Rbt.Current_Directory>
/home/malgorzata/Desktop/rDOCK_IFD/Wyniki/11_neuraminidase

>  <Rbt.Executable>
rbdock ($Id: //depot/dev/client3/rdock/2013.1/src/exe/rbdock.cxx#4 $)

>  <Rbt.Library>
libRbt.so (2013.1, Build901 2013/11/27)

>  <Rbt.Parameter_File>
/home/malgorzata/Desktop/rDock_2013.1_src/data/scripts/soft_docking.prm

>  <Rbt.Receptor>
cavity.prm

>  <SCORE>
-57.7552

>  <SCORE.INTER>
-37.7107

>  <SCORE.INTER.CONST>
1

>  <SCORE.INTER.POLAR>
-5.6396

>  <SCORE.INTER.REPUL>
0.0523306

>  <SCORE.INTER.ROT>
9

>  <SCORE.INTER.VDW>
-33.1977

>  <SCORE.INTER.norm>
-1.34681

>  <SCORE.INTRA>
6.59861

>  <SCORE.INTRA.DIHEDRAL>
14.6509

>  <SCORE.INTRA.DIHEDRAL.0>
7.68839

>  <SCORE.INTRA.POLAR>
0

>  <SCORE.INTRA.POLAR.0>
0

>  <SCORE.INTRA.REPUL>
0

>  <SCORE.INTRA.REPUL.0>
0

>  <SCORE.INTRA.VDW>
3.66843

>  <SCORE.INTRA.VDW.0>
-2.73227

>  <SCORE.INTRA.norm>
0.235665

>  <SCORE.RESTR>
0

>  <SCORE.RESTR.CAVITY>
0

>  <SCORE.RESTR.norm>
0

>  <SCORE.SYSTEM>
-26.6431

>  <SCORE.SYSTEM.CONST>
0

>  <SCORE.SYSTEM.DIHEDRAL>
2.59682

>  <SCORE.SYSTEM.POLAR>
-6.38483

>  <SCORE.SYSTEM.VDW>
-6.23309

>  <SCORE.SYSTEM.norm>
-0.95154

>  <SCORE.heavy>
28

>  <SCORE.norm>
-2.06269

$$$$
DPC.pdb
  rDOCK(R)          3D
libRbt.so/2013.1/901 2013/11/27
 32 33  0  0  0  0  0  0  0  0999 V2000
    2.7155   56.4549   -6.8972 C   0  0  0  0  0  0
    3.4208   57.2243   -6.2550 O   0  0  0  0  0  0
    3.2246   55.5036   -7.4744 O   0  0  0  0  0  0
    1.2521   56.6258   -6.8548 C   0  0  0  0  0  0
    0.6912   57.5705   -6.0925 C   0  0  0  0  0  0
   -0.7993   57.7763   -6.0968 C   0  0  0  0  0  0
   -1.5394   56.5886   -6.7064 C   0  0  0  0  0  0
   -2.8873   57.0022   -7.0791 N   0  0  0  0  0  0
   -3.1711   57.9841   -7.9484 C   0  0  0  0  0  0
   -2.2891   58.6466   -8.4675 O   0  0  0  0  0  0
   -4.6584   58.1950   -8.2865 C   0  0  0  0  0  0
   -0.7958   56.1274   -7.9577 C   0  0  0  0  0  0
    0.5441   55.8367   -7.6627 O   0  0  0  0  0  0
   -1.3701   54.8123   -8.4340 C   0  0  0  0  0  0
   -1.0512   54.0570   -7.9155 O   0  0  0  0  0  0
   -2.3359   54.7989   -9.3427 N   0  0  0  0  0  0
   -2.8998   53.4728   -9.6793 C   0  0  0  0  0  0
   -3.9791   53.0263   -8.6880 C   0  0  0  0  0  0
   -5.3356   53.4411   -9.2221 C   0  0  0  0  0  0
   -6.1119   52.5365   -9.9806 C   0  0  0  0  0  0
   -5.8255   54.7362   -9.0002 C   0  0  0  0  0  0
   -7.3396   52.9362  -10.5372 C   0  0  0  0  0  0
   -7.0469   55.1350   -9.5524 C   0  0  0  0  0  0
   -7.8037   54.2481  -10.3302 C   0  0  0  0  0  0
   -2.8039   55.9836  -10.0585 C   0  0  0  0  0  0
   -2.0030   56.2479  -11.3449 C   0  0  0  0  0  0
   -1.4939   57.6918  -11.5131 C   0  0  0  0  0  0
   -1.2472   57.9918   -4.7468 N   0  0  0  0  0  0
    4.1573   55.4202   -7.5074 H   0  0  0  0  0  0
   -3.6427   56.5271   -6.6633 H   0  0  0  0  0  0
   -2.1435   58.4787   -4.7596 H   0  0  0  0  0  0
   -0.5606   58.5566   -4.2468 H   0  0  0  0  0  0
  1  2  2  0  0  0
  1  3  1  0  0  0
  1  4  1  0  0  0
  3 29  1  0  0  0
  4  5  2  0  0  0
  4 13  1  0  0  0
  5  6  1  0  0  0
  6  7  1  0  0  0
  6 28  1  0  0  0
  7  8  1  0  0  0
  7 12  1  0  0  0
  8  9  1  0  0  0
  8 30  1  0  0  0
  9 10  2  0  0  0
  9 11  1  0  0  0
 12 13  1  0  0  0
 12 14  1  0  0  0
 14 15  2  0  0  0
 14 16  1  0  0  0
 16 17  1  0  0  0
 16 25  1  0  0  0
 17 18  1  0  0  0
 18 19  1  0  0  0
 19 20  2  0  0  0
 19 21  1  0  0  0
 20 22  1  0  0  0
 21 23  2  0  0  0
 22 24  2  0  0  0
 23 24  1  0  0  0
 25 26  1  0  0  0
 26 27  1  0  0  0
 28 31  1  0  0  0
 28 32  1  0  0  0
M  END
>  <CHROM.0>
64.32242888,-8.04893272,16.68348720,-171.94536610,-170.24016863,-154.92457913
143.23477013,80.60196367

>  <CHROM.1>
-7.03198829,-2.44698439,158.10697002,59.38836608,-78.61489719,83.30031696
88.34048011,93.44564175,94.43578077,-130.68945183,-2.14339067,55.85661021
-8.33284261,-0.46807195,0.20191974,-2.66988146

>  <FORMUL>
      DPC    C20 H27 N3 O5

>  <HET>
 DPC  A 466      28

>  <HETNAM>
     DPC 5-ACETYLAMINO-4-AMINO-6-(PHENETHYL-PROPYL-CARBAMOYL)-5,
   2 DPC 6-DIHYDRO-4H-PYRAN-2-CARBOXYLIC ACID

>  <Name>
DPC.pdb

>  <RI>
3.88728e+07

>  <Rbt.Current_Directory>
/home/malgorzata/Desktop/rDOCK_IFD/Wyniki/11_neuraminidase

>  <Rbt.Executable>
rbdock ($Id: //depot/dev/client3/rdock/2013.1/src/exe/rbdock.cxx#4 $)

>  <Rbt.Library>
libRbt.so (2013.1, Build901 2013/11/27)

>  <Rbt.Parameter_File>
/home/malgorzata/Desktop/rDock_2013.1_src/data/scripts/soft_docking.prm

>  <Rbt.Receptor>
cavity.prm

>  <SCORE>
-55.1133

>  <SCORE.INTER>
-31.738

>  <SCORE.INTER.CONST>
1

>  <SCORE.INTER.POLAR>
-6.03967

>  <SCORE.INTER.REPUL>
0.0812833

>  <SCORE.INTER.ROT>
9

>  <SCORE.INTER.VDW>
-26.0096

>  <SCORE.INTER.norm>
-1.1335

>  <SCORE.INTRA>
0.750257

>  <SCORE.INTRA.DIHEDRAL>
8.0542

>  <SCORE.INTRA.DIHEDRAL.0>
7.68839

>  <SCORE.INTRA.POLAR>
0

>  <SCORE.INTRA.POLAR.0>
0

>  <SCORE.INTRA.REPUL>
0

>  <SCORE.INTRA.REPUL.0>
0

>  <SCORE.INTRA.VDW>
-0.860584

>  <SCORE.INTRA.VDW.0>
-2.73227

>  <SCORE.INTRA.norm>
0.0267949

>  <SCORE.RESTR>
0.916948

>  <SCORE.RESTR.CAVITY>
0.18339

>  <SCORE.RESTR.norm>
0.0327481

>  <SCORE.SYSTEM>
-25.0424

>  <SCORE.SYSTEM.CONST>
0

>  <SCORE.SYSTEM.DIHEDRAL>
4.3256

>  <SCORE.SYSTEM.POLAR>
-6.55741

>  <SCORE.SYSTEM.REPUL>
0.163454

>  <SCORE.SYSTEM.VDW>
-5.72732

>  <SCORE.SYSTEM.norm>
-0.894373

>  <SCORE.heavy>
28

>  <SCORE.norm>
-1.96833

$$$$
DPC.pdb
  rDOCK(R)          3D
libRbt.so/2013.1/901 2013/11/27
 32 33  0  0  0  0  0  0  0  0999 V2000
   -2.9732   58.8574   -5.9555 C   0  0  0  0  0  0
   -2.5951   58.7447   -4.7952 O   0  0  0  0  0  0
   -3.7283   59.7703   -6.2616 O   0  0  0  0  0  0
   -2.4079   57.9607   -6.9796 C   0  0  0  0  0  0
   -1.3036   57.2470   -6.7359 C   0  0  0  0  0  0
   -0.7638   56.2915   -7.7652 C   0  0  0  0  0  0
   -1.3530   56.5485   -9.1496 C   0  0  0  0  0  0
   -1.1484   55.3709   -9.9852 N   0  0  0  0  0  0
   -1.2201   55.3643  -11.3251 C   0  0  0  0  0  0
   -1.5149   56.3690  -11.9497 O   0  0  0  0  0  0
   -0.8667   54.0399  -12.0264 C   0  0  0  0  0  0
   -2.8514   56.8082   -9.0128 C   0  0  0  0  0  0
   -3.0955   57.8592   -8.1170 O   0  0  0  0  0  0
   -3.4038   57.3014  -10.3311 C   0  0  0  0  0  0
   -2.8863   58.0336  -10.7012 O   0  0  0  0  0  0
   -4.3773   56.6337  -10.9354 N   0  0  0  0  0  0
   -4.7900   57.1376  -12.2641 C   0  0  0  0  0  0
   -5.7157   58.3544  -12.1677 C   0  0  0  0  0  0
   -6.3134   58.6237  -13.5344 C   0  0  0  0  0  0
   -7.4743   57.9366  -13.9545 C   0  0  0  0  0  0
   -5.7066   59.5323  -14.4135 C   0  0  0  0  0  0
   -7.9946   58.1303  -15.2462 C   0  0  0  0  0  0
   -6.2234   59.7267  -15.6982 C   0  0  0  0  0  0
   -7.3573   59.0234  -16.1269 C   0  0  0  0  0  0
   -5.0896   55.5056  -10.3395 C   0  0  0  0  0  0
   -5.9720   55.9281   -9.1524 C   0  0  0  0  0  0
   -6.1417   57.4483   -8.9725 C   0  0  0  0  0  0
    0.6689   56.4128   -7.8126 N   0  0  0  0  0  0
   -3.7496   60.5531   -5.7470 H   0  0  0  0  0  0
   -0.9431   54.5203   -9.5341 H   0  0  0  0  0  0
    1.0914   55.6751   -7.2490 H   0  0  0  0  0  0
    0.9454   57.3228   -7.4440 H   0  0  0  0  0  0
  1  2  2  0  0  0
  1  3  1  0  0  0
  1  4  1  0  0  0
  3 29  1  0  0  0
  4  5  2  0  0  0
  4 13  1  0  0  0
  5  6  1  0  0  0
  6  7  1  0  0  0
  6 28  1  0  0  0
  7  8  1  0  0  0
  7 12  1  0  0  0
  8  9  1  0  0  0
  8 30  1  0  0  0
  9 10  2  0  0  0
  9 11  1  0  0  0
 12 13  1  0  0  0
 12 14  1  0  0  0
 14 15  2  0  0  0
 14 16  1  0  0  0
 16 17  1  0  0  0
 16 25  1  0  0  0
 17 18  1  0  0  0
 18 19  1  0  0  0
 19 20  2  0  0  0
 19 21  1  0  0  0
 20 22  1  0  0  0
 21 23  2  0  0  0
 22 24  2  0  0  0
 23 24  1  0  0  0
 25 26  1  0  0  0
 26 27  1  0  0  0
 28 31  1  0  0  0
 28 32  1  0  0  0
M  END
>  <CHROM.0>
38.91809998,-134.54862184,-56.56856772,31.97191670,159.60552128,-171.69445945
-113.73629439,-56.34995181

>  <CHROM.1>
24.57978220,-14.85981104,97.81768717,-161.87087142,-50.06364087,-79.27336517
68.27848437,-168.39311121,84.96917948,10.39851362,-3.67144432,57.38040260
-10.31985678,0.84219330,-0.58008674,1.26769879

>  <FORMUL>
      DPC    C20 H27 N3 O5

>  <HET>
 DPC  A 466      28

>  <HETNAM>
     DPC 5-ACETYLAMINO-4-AMINO-6-(PHENETHYL-PROPYL-CARBAMOYL)-5,
   2 DPC 6-DIHYDRO-4H-PYRAN-2-CARBOXYLIC ACID

>  <Name>
DPC.pdb

>  <RI>
3.88728e+07

>  <Rbt.Current_Directory>
/home/malgorzata/Desktop/rDOCK_IFD/Wyniki/11_neuraminidase

>  <Rbt.Executable>
rbdock ($Id: //depot/dev/client3/rdock/2013.1/src/exe/rbdock.cxx#4 $)

>  <Rbt.Library>
libRbt.so (2013.1, Build901 2013/11/27)

>  <Rbt.Parameter_File>
/home/malgorzata/Desktop/rDock_2013.1_src/data/scripts/soft_docking.prm

>  <Rbt.Receptor>
cavity.prm

>  <SCORE>
-59.2464

>  <SCORE.INTER>
-36.8704

>  <SCORE.INTER.CONST>
1

>  <SCORE.INTER.POLAR>
-4.91055

>  <SCORE.INTER.REPUL>
0.114983

>  <SCORE.INTER.ROT>
9

>  <SCORE.INTER.VDW>
-35.1494

>  <SCORE.INTER.norm>
-1.3168

>  <SCORE.INTRA>
4.9338

>  <SCORE.INTRA.DIHEDRAL>
12.4138

>  <SCORE.INTRA.DIHEDRAL.0>
7.68839

>  <SCORE.INTRA.POLAR>
0

>  <SCORE.INTRA.POLAR.0>
0

>  <SCORE.INTRA.REPUL>
0

>  <SCORE.INTRA.REPUL.0>
0

>  <SCORE.INTRA.VDW>
2.45104

>  <SCORE.INTRA.VDW.0>
-2.73227

>  <SCORE.INTRA.norm>
0.176207

>  <SCORE.RESTR>
0

>  <SCORE.RESTR.CAVITY>
0

>  <SCORE.RESTR.norm>
0

>  <SCORE.SYSTEM>
-27.3098

>  <SCORE.SYSTEM.CONST>
0

>  <SCORE.SYSTEM.DIHEDRAL>
8.26984

>  <SCORE.SYSTEM.POLAR>
-7.5561

>  <SCORE.SYSTEM.VDW>
-5.75397

>  <SCORE.SYSTEM.norm>
-0.97535

>  <SCORE.heavy>
28

>  <SCORE.norm>
-2.11594

$$$$
DPC.pdb
  rDOCK(R)          3D
libRbt.so/2013.1/901 2013/11/27
 32 33  0  0  0  0  0  0  0  0999 V2000
   -2.8262   61.3257   -6.0699 C   0  0  0  0  0  0
   -3.3852   62.0386   -6.8953 O   0  0  0  0  0  0
   -2.5235   61.7854   -4.9771 O   0  0  0  0  0  0
   -2.6444   59.8944   -6.3711 C   0  0  0  0  0  0
   -2.0065   59.0868   -5.5172 C   0  0  0  0  0  0
   -1.8734   57.6160   -5.8047 C   0  0  0  0  0  0
   -2.1654   57.2898   -7.2670 C   0  0  0  0  0  0
   -2.4465   55.8645   -7.3946 N   0  0  0  0  0  0
   -1.6542   54.9840   -8.0251 C   0  0  0  0  0  0
   -0.6340   55.3395   -8.5899 O   0  0  0  0  0  0
   -2.0777   53.5052   -7.9563 C   0  0  0  0  0  0
   -3.3903   58.0817   -7.7189 C   0  0  0  0  0  0
   -3.2064   59.4541   -7.4967 O   0  0  0  0  0  0
   -3.5483   57.9610   -9.2178 C   0  0  0  0  0  0
   -2.7021   58.0239   -9.6879 O   0  0  0  0  0  0
   -4.7207   57.6231   -9.7375 N   0  0  0  0  0  0
   -4.7575   57.4387  -11.2053 C   0  0  0  0  0  0
   -4.6523   55.9659  -11.6136 C   0  0  0  0  0  0
   -3.2645   55.7096  -12.1666 C   0  0  0  0  0  0
   -3.0467   55.6747  -13.5622 C   0  0  0  0  0  0
   -2.1844   55.4714  -11.3045 C   0  0  0  0  0  0
   -1.7767   55.3695  -14.0826 C   0  0  0  0  0  0
   -0.9205   55.1687  -11.8207 C   0  0  0  0  0  0
   -0.7099   55.1040  -13.2048 C   0  0  0  0  0  0
   -5.9547   57.5003   -8.9647 C   0  0  0  0  0  0
   -6.8065   58.7805   -9.0098 C   0  0  0  0  0  0
   -6.0146   60.0969   -8.9000 C   0  0  0  0  0  0
   -0.5422   57.1898   -5.4644 N   0  0  0  0  0  0
   -3.1927   61.9975   -4.3564 H   0  0  0  0  0  0
   -3.2767   55.5241   -6.9893 H   0  0  0  0  0  0
    0.1134   57.5270   -6.1694 H   0  0  0  0  0  0
   -0.5098   56.1709   -5.4297 H   0  0  0  0  0  0
  1  2  2  0  0  0
  1  3  1  0  0  0
  1  4  1  0  0  0
  3 29  1  0  0  0
  4  5  2  0  0  0
  4 13  1  0  0  0
  5  6  1  0  0  0
  6  7  1  0  0  0
  6 28  1  0  0  0
  7  8  1  0  0  0
  7 12  1  0  0  0
  8  9  1  0  0  0
  8 30  1  0  0  0
  9 10  2  0  0  0
  9 11  1  0  0  0
 12 13  1  0  0  0
 12 14  1  0  0  0
 14 15  2  0  0  0
 14 16  1  0  0  0
 16 17  1  0  0  0
 16 25  1  0  0  0
 17 18  1  0  0  0
 18 19  1  0  0  0
 19 20  2  0  0  0
 19 21  1  0  0  0
 20 22  1  0  0  0
 21 23  2  0  0  0
 22 24  2  0  0  0
 23 24  1  0  0  0
 25 26  1  0  0  0
 26 27  1  0  0  0
 28 31  1  0  0  0
 28 32  1  0  0  0
M  END
>  <CHROM.0>
115.02645108,121.75841404,-79.12878152,71.96745286,-20.96084122,172.07533422
-149.59136462,-101.05492107

>  <CHROM.1>
69.84606603,178.07750170,-74.17878697,-111.92412095,-41.47378982,98.28798465
95.60119728,-105.70571057,-99.47688725,-41.09286598,-2.95153402,57.53236558
-8.84741854,1.67890369,-0.73506460,0.95268636

>  <FORMUL>
      DPC    C20 H27 N3 O5

>  <HET>
 DPC  A 466      28

>  <HETNAM>
     DPC 5-ACETYLAMINO-4-AMINO-6-(PHENETHYL-PROPYL-CARBAMOYL)-5,
   2 DPC 6-DIHYDRO-4H-PYRAN-2-CARBOXYLIC ACID

>  <Name>
DPC.pdb

>  <RI>
3.88728e+07

>  <Rbt.Current_Directory>
/home/malgorzata/Desktop/rDOCK_IFD/Wyniki/11_neuraminidase

>  <Rbt.Executable>
rbdock ($Id: //depot/dev/client3/rdock/2013.1/src/exe/rbdock.cxx#4 $)

>  <Rbt.Library>
libRbt.so (2013.1, Build901 2013/11/27)

>  <Rbt.Parameter_File>
/home/malgorzata/Desktop/rDock_2013.1_src/data/scripts/soft_docking.prm

>  <Rbt.Receptor>
cavity.prm

>  <SCORE>
-49.4435

>  <SCORE.INTER>
-28.0448

>  <SCORE.INTER.CONST>
1

>  <SCORE.INTER.POLAR>
-4.08228

>  <SCORE.INTER.REPUL>
0.0201462

>  <SCORE.INTER.ROT>
9

>  <SCORE.INTER.VDW>
-28.6658

>  <SCORE.INTER.norm>
-1.0016

>  <SCORE.INTRA>
3.73193

>  <SCORE.INTRA.DIHEDRAL>
26.4015

>  <SCORE.INTRA.DIHEDRAL.0>
7.68839

>  <SCORE.INTRA.POLAR>
0

>  <SCORE.INTRA.POLAR.0>
0

>  <SCORE.INTRA.REPUL>
0

>  <SCORE.INTRA.REPUL.0>
0

>  <SCORE.INTRA.VDW>
-1.54837

>  <SCORE.INTRA.VDW.0>
-2.73227

>  <SCORE.INTRA.norm>
0.133283

>  <SCORE.RESTR>
0

>  <SCORE.RESTR.CAVITY>
0

>  <SCORE.RESTR.norm>
0

>  <SCORE.SYSTEM>
-25.1306

>  <SCORE.SYSTEM.CONST>
0

>  <SCORE.SYSTEM.DIHEDRAL>
10.5277

>  <SCORE.SYSTEM.POLAR>
-6.95529

>  <SCORE.SYSTEM.VDW>
-6.74652

>  <SCORE.SYSTEM.norm>
-0.897523

>  <SCORE.heavy>
28

>  <SCORE.norm>
-1.76584

$$$$
DPC.pdb
  rDOCK(R)          3D
libRbt.so/2013.1/901 2013/11/27
 32 33  0  0  0  0  0  0  0  0999 V2000
    0.7918   56.8461   -6.4343 C   0  0  0  0  0  0
    0.0395   56.7216   -5.4749 O   0  0  0  0  0  0
    1.8082   57.5187   -6.3251 O   0  0  0  0  0  0
    0.5148   56.0782   -7.6616 C   0  0  0  0  0  0
    1.0886   54.8892   -7.8739 C   0  0  0  0  0  0
    0.7583   54.0852   -9.1021 C   0  0  0  0  0  0
    0.0719   54.9303  -10.1720 C   0  0  0  0  0  0
   -0.5991   54.0506  -11.1221 N   0  0  0  0  0  0
   -0.2412   53.8999  -12.4065 C   0  0  0  0  0  0
    0.6733   54.5450  -12.8902 O   0  0  0  0  0  0
   -1.0130   52.8418  -13.2161 C   0  0  0  0  0  0
   -0.9670   55.8294   -9.5058 C   0  0  0  0  0  0
   -0.3802   56.6062   -8.4964 O   0  0  0  0  0  0
   -1.4813   56.8393  -10.5069 C   0  0  0  0  0  0
   -0.9882   56.8202  -11.3420 O   0  0  0  0  0  0
   -2.6002   57.5075  -10.2619 N   0  0  0  0  0  0
   -3.0757   58.4052  -11.3379 C   0  0  0  0  0  0
   -3.8444   59.6142  -10.7956 C   0  0  0  0  0  0
   -3.7568   60.7422  -11.8043 C   0  0  0  0  0  0
   -4.2050   62.0389  -11.4668 C   0  0  0  0  0  0
   -3.2612   60.5095  -13.0954 C   0  0  0  0  0  0
   -4.1907   63.0733  -12.4190 C   0  0  0  0  0  0
   -3.2455   61.5376  -14.0432 C   0  0  0  0  0  0
   -3.7179   62.8166  -13.7190 C   0  0  0  0  0  0
   -3.3230   57.4581   -8.9929 C   0  0  0  0  0  0
   -4.5833   56.5793   -9.0680 C   0  0  0  0  0  0
   -5.9083   57.3485   -9.2254 C   0  0  0  0  0  0
    1.9694   53.5160   -9.6302 N   0  0  0  0  0  0
    2.4007   57.5928   -7.0472 H   0  0  0  0  0  0
   -1.3695   53.5304  -10.7980 H   0  0  0  0  0  0
    2.2766   54.0590  -10.4372 H   0  0  0  0  0  0
    1.7960   52.5520   -9.9149 H   0  0  0  0  0  0
  1  2  2  0  0  0
  1  3  1  0  0  0
  1  4  1  0  0  0
  3 29  1  0  0  0
  4  5  2  0  0  0
  4 13  1  0  0  0
  5  6  1  0  0  0
  6  7  1  0  0  0
  6 28  1  0  0  0
  7  8  1  0  0  0
  7 12  1  0  0  0
  8  9  1  0  0  0
  8 30  1  0  0  0
  9 10  2  0  0  0
  9 11  1  0  0  0
 12 13  1  0  0  0
 12 14  1  0  0  0
 14 15  2  0  0  0
 14 16  1  0  0  0
 16 17  1  0  0  0
 16 25  1  0  0  0
 17 18  1  0  0  0
 18 19  1  0  0  0
 19 20  2  0  0  0
 19 21  1  0  0  0
 20 22  1  0  0  0
 21 23  2  0  0  0
 22 24  2  0  0  0
 23 24  1  0  0  0
 25 26  1  0  0  0
 26 27  1  0  0  0
 28 31  1  0  0  0
 28 32  1  0  0  0
M  END
>  <CHROM.0>
63.03896500,-157.14269174,41.99676388,-145.08698574,113.30294770,-33.77216804
-143.91669218,-15.96262640

>  <CHROM.1>
177.93738068,-93.70463334,-102.08665495,-112.83069790,-7.64326004,-149.95374940
-103.61112733,155.11816496,-170.30201991,-100.86085499,-1.50419873,57.18505509
-10.25269310,0.01275581,-0.99146738,1.10597511

>  <FORMUL>
      DPC    C20 H27 N3 O5

>  <HET>
 DPC  A 466      28

>  <HETNAM>
     DPC 5-ACETYLAMINO-4-AMINO-6-(PHENETHYL-PROPYL-CARBAMOYL)-5,
   2 DPC 6-DIHYDRO-4H-PYRAN-2-CARBOXYLIC ACID

>  <Name>
DPC.pdb

>  <RI>
3.88728e+07

>  <Rbt.Current_Directory>
/home/malgorzata/Desktop/rDOCK_IFD/Wyniki/11_neuraminidase

>  <Rbt.Executable>
rbdock ($Id: //depot/dev/client3/rdock/2013.1/src/exe/rbdock.cxx#4 $)

>  <Rbt.Library>
libRbt.so (2013.1, Build901 2013/11/27)

>  <Rbt.Parameter_File>
/home/malgorzata/Desktop/rDock_2013.1_src/data/scripts/soft_docking.prm

>  <Rbt.Receptor>
cavity.prm

>  <SCORE>
-42.4776

>  <SCORE.INTER>
-24.6089

>  <SCORE.INTER.CONST>
1

>  <SCORE.INTER.POLAR>
-4.73341

>  <SCORE.INTER.REPUL>
0

>  <SCORE.INTER.ROT>
9

>  <SCORE.INTER.VDW>
-22.9153

>  <SCORE.INTER.norm>
-0.87889

>  <SCORE.INTRA>
9.14573

>  <SCORE.INTRA.DIHEDRAL>
17.1228

>  <SCORE.INTRA.DIHEDRAL.0>
7.68839

>  <SCORE.INTRA.POLAR>
0

>  <SCORE.INTRA.POLAR.0>
0

>  <SCORE.INTRA.REPUL>
0

>  <SCORE.INTRA.REPUL.0>
0

>  <SCORE.INTRA.VDW>
5.72117

>  <SCORE.INTRA.VDW.0>
-2.73227

>  <SCORE.INTRA.norm>
0.326633

>  <SCORE.RESTR>
0.157261

>  <SCORE.RESTR.CAVITY>
0.0314522

>  <SCORE.RESTR.norm>
0.00561646

>  <SCORE.SYSTEM>
-27.1716

>  <SCORE.SYSTEM.CONST>
0

>  <SCORE.SYSTEM.DIHEDRAL>
3.88219

>  <SCORE.SYSTEM.POLAR>
-6.88777

>  <SCORE.SYSTEM.REPUL>
0.182842

>  <SCORE.SYSTEM.VDW>
-6.60851

>  <SCORE.SYSTEM.norm>
-0.970415

>  <SCORE.heavy>
28

>  <SCORE.norm>
-1.51706

$$$$
DPC.pdb
  rDOCK(R)          3D
libRbt.so/2013.1/901 2013/11/27
 32 33  0  0  0  0  0  0  0  0999 V2000
   -1.5780   57.8577   -6.6990 C   0  0  0  0  0  0
   -0.8063   58.0766   -5.7724 O   0  0  0  0  0  0
   -2.6337   58.4726   -6.7674 O   0  0  0  0  0  0
   -1.1562   56.9459   -7.7775 C   0  0  0  0  0  0
   -0.0650   56.1840   -7.6474 C   0  0  0  0  0  0
    0.3283   55.2145   -8.7288 C   0  0  0  0  0  0
   -0.3838   55.5072  -10.0467 C   0  0  0  0  0  0
   -0.3140   54.3287  -10.9028 N   0  0  0  0  0  0
   -0.4039   54.3515  -12.2414 C   0  0  0  0  0  0
   -0.6008   55.3914  -12.8464 O   0  0  0  0  0  0
   -0.1997   53.0093  -12.9677 C   0  0  0  0  0  0
   -1.8487   55.8292   -9.7605 C   0  0  0  0  0  0
   -1.9571   56.8826   -8.8411 O   0  0  0  0  0  0
   -2.5075   56.3558  -11.0156 C   0  0  0  0  0  0
   -1.9106   56.9059  -11.5468 O   0  0  0  0  0  0
   -3.7078   55.9177  -11.3701 N   0  0  0  0  0  0
   -4.2329   56.4184  -12.6598 C   0  0  0  0  0  0
   -5.7641   56.4258  -12.7058 C   0  0  0  0  0  0
   -6.2225   57.6007  -13.5468 C   0  0  0  0  0  0
   -5.6932   58.8910  -13.3204 C   0  0  0  0  0  0
   -7.2002   57.4319  -14.5378 C   0  0  0  0  0  0
   -6.1634   59.9973  -14.0496 C   0  0  0  0  0  0
   -7.6682   58.5312  -15.2645 C   0  0  0  0  0  0
   -7.1658   59.8165  -15.0201 C   0  0  0  0  0  0
   -4.5414   55.0503  -10.5407 C   0  0  0  0  0  0
   -5.5535   55.8416   -9.6947 C   0  0  0  0  0  0
   -5.0115   57.1431   -9.0748 C   0  0  0  0  0  0
    1.7531   55.2753   -8.9180 N   0  0  0  0  0  0
   -2.7362   59.2804   -6.3038 H   0  0  0  0  0  0
   -0.1923   53.4540  -10.4675 H   0  0  0  0  0  0
    1.9963   54.8447   -9.8102 H   0  0  0  0  0  0
    2.2184   54.7747   -8.1608 H   0  0  0  0  0  0
  1  2  2  0  0  0
  1  3  1  0  0  0
  1  4  1  0  0  0
  3 29  1  0  0  0
  4  5  2  0  0  0
  4 13  1  0  0  0
  5  6  1  0  0  0
  6  7  1  0  0  0
  6 28  1  0  0  0
  7  8  1  0  0  0
  7 12  1  0  0  0
  8  9  1  0  0  0
  8 30  1  0  0  0
  9 10  2  0  0  0
  9 11  1  0  0  0
 12 13  1  0  0  0
 12 14  1  0  0  0
 14 15  2  0  0  0
 14 16  1  0  0  0
 16 17  1  0  0  0
 16 25  1  0  0  0
 17 18  1  0  0  0
 18 19  1  0  0  0
 19 20  2  0  0  0
 19 21  1  0  0  0
 20 22  1  0  0  0
 21 23  2  0  0  0
 22 24  2  0  0  0
 23 24  1  0  0  0
 25 26  1  0  0  0
 26 27  1  0  0  0
 28 31  1  0  0  0
 28 32  1  0  0  0
M  END
>  <CHROM.0>
-79.22428088,-46.97928129,100.30462598,-98.23295838,118.84768439,-164.89712218
-166.10625434,-71.22053247

>  <CHROM.1>
19.93912958,11.80354593,-163.41856936,-155.82145090,-36.15181443,-153.55965795
94.81270797,146.54956910,-48.78814837,-40.50330468,-2.89276308,56.60515044
-10.78995616,0.51628956,-0.58804271,1.16082224

>  <FORMUL>
      DPC    C20 H27 N3 O5

>  <HET>
 DPC  A 466      28

>  <HETNAM>
     DPC 5-ACETYLAMINO-4-AMINO-6-(PHENETHYL-PROPYL-CARBAMOYL)-5,
   2 DPC 6-DIHYDRO-4H-PYRAN-2-CARBOXYLIC ACID

>  <Name>
DPC.pdb

>  <RI>
3.88728e+07

>  <Rbt.Current_Directory>
/home/malgorzata/Desktop/rDOCK_IFD/Wyniki/11_neuraminidase

>  <Rbt.Executable>
rbdock ($Id: //depot/dev/client3/rdock/2013.1/src/exe/rbdock.cxx#4 $)

>  <Rbt.Library>
libRbt.so (2013.1, Build901 2013/11/27)

>  <Rbt.Parameter_File>
/home/malgorzata/Desktop/rDock_2013.1_src/data/scripts/soft_docking.prm

>  <Rbt.Receptor>
cavity.prm

>  <SCORE>
-57.9254

>  <SCORE.INTER>
-38.7836

>  <SCORE.INTER.CONST>
1

>  <SCORE.INTER.POLAR>
-6.12735

>  <SCORE.INTER.REPUL>
0.0849762

>  <SCORE.INTER.ROT>
9

>  <SCORE.INTER.VDW>
-32.7755

>  <SCORE.INTER.norm>
-1.38513

>  <SCORE.INTRA>
6.47185

>  <SCORE.INTRA.DIHEDRAL>
7.37995

>  <SCORE.INTRA.DIHEDRAL.0>
7.68839

>  <SCORE.INTRA.POLAR>
0

>  <SCORE.INTRA.POLAR.0>
0

>  <SCORE.INTRA.REPUL>
0

>  <SCORE.INTRA.REPUL.0>
0

>  <SCORE.INTRA.VDW>
4.99586

>  <SCORE.INTRA.VDW.0>
-2.73227

>  <SCORE.INTRA.norm>
0.231138

>  <SCORE.RESTR>
0

>  <SCORE.RESTR.CAVITY>
0

>  <SCORE.RESTR.norm>
0

>  <SCORE.SYSTEM>
-25.6136

>  <SCORE.SYSTEM.CONST>
0

>  <SCORE.SYSTEM.DIHEDRAL>
4.30345

>  <SCORE.SYSTEM.POLAR>
-6.52917

>  <SCORE.SYSTEM.REPUL>
0.392563

>  <SCORE.SYSTEM.VDW>
-7.52897

>  <SCORE.SYSTEM.norm>
-0.914772

>  <SCORE.heavy>
28

>  <SCORE.norm>
-2.06876

$$$$
DPC.pdb
  rDOCK(R)          3D
libRbt.so/2013.1/901 2013/11/27
 32 33  0  0  0  0  0  0  0  0999 V2000
    2.0156   55.6913   -7.9140 C   0  0  0  0  0  0
    2.8876   55.0199   -7.3748 O   0  0  0  0  0  0
    2.1832   56.8938   -8.0667 O   0  0  0  0  0  0
    0.8370   55.0089   -8.4775 C   0  0  0  0  0  0
    0.7924   53.6756   -8.5701 C   0  0  0  0  0  0
   -0.4360   52.9827   -9.0944 C   0  0  0  0  0  0
   -1.3644   53.9437   -9.8322 C   0  0  0  0  0  0
   -2.6918   53.3480   -9.9321 N   0  0  0  0  0  0
   -3.5515   53.2241   -8.9093 C   0  0  0  0  0  0
   -3.2500   53.5742   -7.7811 O   0  0  0  0  0  0
   -4.9452   52.6628   -9.2462 C   0  0  0  0  0  0
   -1.4614   55.2471   -9.0428 C   0  0  0  0  0  0
   -0.1880   55.7900   -8.8183 O   0  0  0  0  0  0
   -2.1748   56.2911   -9.8719 C   0  0  0  0  0  0
   -1.9574   56.2298  -10.8154 O   0  0  0  0  0  0
   -3.1155   57.0473   -9.3226 N   0  0  0  0  0  0
   -3.8228   57.9761  -10.2319 C   0  0  0  0  0  0
   -4.9513   57.2902  -11.0083 C   0  0  0  0  0  0
   -6.2670   57.9475  -10.6417 C   0  0  0  0  0  0
   -7.2436   58.1931  -11.6328 C   0  0  0  0  0  0
   -6.5216   58.3506   -9.3229 C   0  0  0  0  0  0
   -8.4371   58.8640  -11.3132 C   0  0  0  0  0  0
   -7.7086   59.0172   -9.0033 C   0  0  0  0  0  0
   -8.6649   59.2883   -9.9913 C   0  0  0  0  0  0
   -3.4265   57.0602   -7.8950 C   0  0  0  0  0  0
   -2.7578   58.2333   -7.1581 C   0  0  0  0  0  0
   -1.2281   58.3177   -7.3158 C   0  0  0  0  0  0
   -0.0346   51.9174   -9.9740 N   0  0  0  0  0  0
    1.4626   57.4396   -8.3134 H   0  0  0  0  0  0
   -2.9774   53.0129  -10.8127 H   0  0  0  0  0  0
    0.4633   52.3069  -10.7745 H   0  0  0  0  0  0
   -0.8609   51.4153  -10.2989 H   0  0  0  0  0  0
  1  2  2  0  0  0
  1  3  1  0  0  0
  1  4  1  0  0  0
  3 29  1  0  0  0
  4  5  2  0  0  0
  4 13  1  0  0  0
  5  6  1  0  0  0
  6  7  1  0  0  0
  6 28  1  0  0  0
  7  8  1  0  0  0
  7 12  1  0  0  0
  8  9  1  0  0  0
  8 30  1  0  0  0
  9 10  2  0  0  0
  9 11  1  0  0  0
 12 13  1  0  0  0
 12 14  1  0  0  0
 14 15  2  0  0  0
 14 16  1  0  0  0
 16 17  1  0  0  0
 16 25  1  0  0  0
 17 18  1  0  0  0
 18 19  1  0  0  0
 19 20  2  0  0  0
 19 21  1  0  0  0
 20 22  1  0  0  0
 21 23  2  0  0  0
 22 24  2  0  0  0
 23 24  1  0  0  0
 25 26  1  0  0  0
 26 27  1  0  0  0
 28 31  1  0  0  0
 28 32  1  0  0  0
M  END
>  <CHROM.0>
37.30866053,-3.09807516,140.15396442,95.44472305,3.16276934,141.58867906
-142.88079312,83.95716380

>  <CHROM.1>
-167.49549031,-9.11817689,-62.63286604,73.21810519,-36.41215341,82.23774064
98.31139362,118.33214552,139.79702776,-55.55836659,-2.65945829,55.99382314
-9.21053630,-0.39367996,-0.29936565,0.18926473

>  <FORMUL>
      DPC    C20 H27 N3 O5

>  <HET>
 DPC  A 466      28

>  <HETNAM>
     DPC 5-ACETYLAMINO-4-AMINO-6-(PHENETHYL-PROPYL-CARBAMOYL)-5,
   2 DPC 6-DIHYDRO-4H-PYRAN-2-CARBOXYLIC ACID

>  <Name>
DPC.pdb

>  <RI>
3.88728e+07

>  <Rbt.Current_Directory>
/home/malgorzata/Desktop/rDOCK_IFD/Wyniki/11_neuraminidase

>  <Rbt.Executable>
rbdock ($Id: //depot/dev/client3/rdock/2013.1/src/exe/rbdock.cxx#4 $)

>  <Rbt.Library>
libRbt.so (2013.1, Build901 2013/11/27)

>  <Rbt.Parameter_File>
/home/malgorzata/Desktop/rDock_2013.1_src/data/scripts/soft_docking.prm

>  <Rbt.Receptor>
cavity.prm

>  <SCORE>
-49.816

>  <SCORE.INTER>
-24.5191

>  <SCORE.INTER.CONST>
1

>  <SCORE.INTER.POLAR>
-3.61645

>  <SCORE.INTER.REPUL>
0

>  <SCORE.INTER.ROT>
9

>  <SCORE.INTER.VDW>
-26.6231

>  <SCORE.INTER.norm>
-0.875681

>  <SCORE.INTRA>
2.44826

>  <SCORE.INTRA.DIHEDRAL>
6.54059

>  <SCORE.INTRA.DIHEDRAL.0>
7.68839

>  <SCORE.INTRA.POLAR>
-0.00242974

>  <SCORE.INTRA.POLAR.0>
0

>  <SCORE.INTRA.REPUL>
0

>  <SCORE.INTRA.REPUL.0>
0

>  <SCORE.INTRA.VDW>
1.1484

>  <SCORE.INTRA.VDW.0>
-2.73227

>  <SCORE.INTRA.norm>
0.0874378

>  <SCORE.RESTR>
0.362717

>  <SCORE.RESTR.CAVITY>
0.0725433

>  <SCORE.RESTR.norm>
0.0129542

>  <SCORE.SYSTEM>
-28.1079

>  <SCORE.SYSTEM.CONST>
0

>  <SCORE.SYSTEM.DIHEDRAL>
6.20992

>  <SCORE.SYSTEM.POLAR>
-7.11266

>  <SCORE.SYSTEM.VDW>
-7.02978

>  <SCORE.SYSTEM.norm>
-1.00385

>  <SCORE.heavy>
28

>  <SCORE.norm>
-1.77914

$$$$
DPC.pdb
  rDOCK(R)          3D
libRbt.so/2013.1/901 2013/11/27
 32 33  0  0  0  0  0  0  0  0999 V2000
   -2.2174   58.6217   -5.7370 C   0  0  0  0  0  0
   -3.3653   58.4187   -5.3590 O   0  0  0  0  0  0
   -1.6026   59.5922   -5.3157 O   0  0  0  0  0  0
   -1.5623   57.6194   -6.5964 C   0  0  0  0  0  0
   -0.4637   56.9753   -6.1885 C   0  0  0  0  0  0
    0.1676   55.9133   -7.0473 C   0  0  0  0  0  0
   -0.3269   55.9751   -8.4901 C   0  0  0  0  0  0
   -0.0391   54.7075   -9.1514 N   0  0  0  0  0  0
   -0.1334   53.5034   -8.5670 C   0  0  0  0  0  0
   -0.4337   53.3907   -7.3908 O   0  0  0  0  0  0
    0.1115   52.2798   -9.4690 C   0  0  0  0  0  0
   -1.8363   56.2056   -8.4898 C   0  0  0  0  0  0
   -2.1651   57.3541   -7.7553 O   0  0  0  0  0  0
   -2.3036   56.5110   -9.8951 C   0  0  0  0  0  0
   -1.6297   56.9705  -10.4201 O   0  0  0  0  0  0
   -3.4485   56.0097  -10.3385 N   0  0  0  0  0  0
   -3.7790   56.2850  -11.7544 C   0  0  0  0  0  0
   -4.1708   57.7469  -11.9911 C   0  0  0  0  0  0
   -5.1648   57.8080  -13.1338 C   0  0  0  0  0  0
   -6.0336   58.9142  -13.2666 C   0  0  0  0  0  0
   -5.2596   56.7555  -14.0556 C   0  0  0  0  0  0
   -7.0044   58.9459  -14.2831 C   0  0  0  0  0  0
   -6.2241   56.7860  -15.0678 C   0  0  0  0  0  0
   -7.1066   57.8687  -15.1823 C   0  0  0  0  0  0
   -4.4036   55.2848   -9.5034 C   0  0  0  0  0  0
   -4.4354   53.7793   -9.8178 C   0  0  0  0  0  0
   -3.3055   52.9533   -9.1752 C   0  0  0  0  0  0
    1.5972   56.0700   -7.0126 N   0  0  0  0  0  0
   -0.7074   59.7220   -5.5603 H   0  0  0  0  0  0
    0.2444   54.7375  -10.0937 H   0  0  0  0  0  0
    1.8941   56.6556   -7.7931 H   0  0  0  0  0  0
    2.0414   55.1547   -7.0859 H   0  0  0  0  0  0
  1  2  2  0  0  0
  1  3  1  0  0  0
  1  4  1  0  0  0
  3 29  1  0  0  0
  4  5  2  0  0  0
  4 13  1  0  0  0
  5  6  1  0  0  0
  6  7  1  0  0  0
  6 28  1  0  0  0
  7  8  1  0  0  0
  7 12  1  0  0  0
  8  9  1  0  0  0
  8 30  1  0  0  0
  9 10  2  0  0  0
  9 11  1  0  0  0
 12 13  1  0  0  0
 12 14  1  0  0  0
 14 15  2  0  0  0
 14 16  1  0  0  0
 16 17  1  0  0  0
 16 25  1  0  0  0
 17 18  1  0  0  0
 18 19  1  0  0  0
 19 20  2  0  0  0
 19 21  1  0  0  0
 20 22  1  0  0  0
 21 23  2  0  0  0
 22 24  2  0  0  0
 23 24  1  0  0  0
 25 26  1  0  0  0
 26 27  1  0  0  0
 28 31  1  0  0  0
 28 32  1  0  0  0
M  END
>  <CHROM.0>
-104.20531138,138.03716570,19.18883280,-139.76751526,146.32751407,145.21996953
-159.17647606,88.62075570

>  <CHROM.1>
176.19486864,-117.52392541,-92.88885068,37.92320929,-31.14876307,-71.89553987
-108.42083898,-149.28941927,157.75377171,80.55777378,-2.65530445,56.37466788
-9.55885385,0.38259968,-0.85408830,0.70178743

>  <FORMUL>
      DPC    C20 H27 N3 O5

>  <HET>
 DPC  A 466      28

>  <HETNAM>
     DPC 5-ACETYLAMINO-4-AMINO-6-(PHENETHYL-PROPYL-CARBAMOYL)-5,
   2 DPC 6-DIHYDRO-4H-PYRAN-2-CARBOXYLIC ACID

>  <Name>
DPC.pdb

>  <RI>
3.88728e+07

>  <Rbt.Current_Directory>
/home/malgorzata/Desktop/rDOCK_IFD/Wyniki/11_neuraminidase

>  <Rbt.Executable>
rbdock ($Id: //depot/dev/client3/rdock/2013.1/src/exe/rbdock.cxx#4 $)

>  <Rbt.Library>
libRbt.so (2013.1, Build901 2013/11/27)

>  <Rbt.Parameter_File>
/home/malgorzata/Desktop/rDock_2013.1_src/data/scripts/soft_docking.prm

>  <Rbt.Receptor>
cavity.prm

>  <SCORE>
-51.4459

>  <SCORE.INTER>
-32.0544

>  <SCORE.INTER.CONST>
1

>  <SCORE.INTER.POLAR>
-3.89276

>  <SCORE.INTER.REPUL>
0.0284132

>  <SCORE.INTER.ROT>
9

>  <SCORE.INTER.VDW>
-33.3611

>  <SCORE.INTER.norm>
-1.1448

>  <SCORE.INTRA>
5.95869

>  <SCORE.INTRA.DIHEDRAL>
12.3311

>  <SCORE.INTRA.DIHEDRAL.0>
7.68839

>  <SCORE.INTRA.POLAR>
0

>  <SCORE.INTRA.POLAR.0>
0

>  <SCORE.INTRA.REPUL>
0

>  <SCORE.INTRA.REPUL.0>
0

>  <SCORE.INTRA.VDW>
3.49247

>  <SCORE.INTRA.VDW.0>
-2.73227

>  <SCORE.INTRA.norm>
0.21281

>  <SCORE.RESTR>
0

>  <SCORE.RESTR.CAVITY>
0

>  <SCORE.RESTR.norm>
0

>  <SCORE.SYSTEM>
-25.3502

>  <SCORE.SYSTEM.CONST>
0

>  <SCORE.SYSTEM.DIHEDRAL>
8.9482

>  <SCORE.SYSTEM.POLAR>
-6.64998

>  <SCORE.SYSTEM.VDW>
-7.21438

>  <SCORE.SYSTEM.norm>
-0.905365

>  <SCORE.heavy>
28

>  <SCORE.norm>
-1.83736

$$$$
