DPC.pdb
  rDOCK(R)          3D
libRbt.so/2013.1/901 2013/11/27
 32 33  0  0  0  0  0  0  0  0999 V2000
    2.6032   56.9958   -7.1459 C   0  0  0  0  0  0
    3.6341   56.5259   -6.6787 O   0  0  0  0  0  0
    2.2596   58.1294   -6.8391 O   0  0  0  0  0  0
    1.8671   56.2263   -8.1651 C   0  0  0  0  0  0
    2.2366   54.9824   -8.4884 C   0  0  0  0  0  0
    1.4474   54.1822   -9.4887 C   0  0  0  0  0  0
    0.5123   55.0611  -10.3151 C   0  0  0  0  0  0
   -0.5091   54.2255  -10.9358 N   0  0  0  0  0  0
   -0.4877   53.8171  -12.2138 C   0  0  0  0  0  0
    0.3959   54.1674  -12.9772 O   0  0  0  0  0  0
   -1.6066   52.8518  -12.6464 C   0  0  0  0  0  0
   -0.1643   56.0730   -9.3933 C   0  0  0  0  0  0
    0.7896   56.8159   -8.6828 O   0  0  0  0  0  0
   -0.9013   57.1011  -10.2216 C   0  0  0  0  0  0
   -0.4890   57.2469  -11.0875 O   0  0  0  0  0  0
   -2.0738   57.5672   -9.8133 N   0  0  0  0  0  0
   -2.7641   58.4990  -10.7325 C   0  0  0  0  0  0
   -2.8405   57.9602  -12.1645 C   0  0  0  0  0  0
   -4.2607   58.1159  -12.6706 C   0  0  0  0  0  0
   -5.3547   57.7635  -11.8488 C   0  0  0  0  0  0
   -4.5095   58.5801  -13.9703 C   0  0  0  0  0  0
   -6.6715   57.8402  -12.3355 C   0  0  0  0  0  0
   -5.8188   58.6578  -14.4555 C   0  0  0  0  0  0
   -6.9029   58.2799  -13.6517 C   0  0  0  0  0  0
   -2.6635   57.2726   -8.5092 C   0  0  0  0  0  0
   -3.2170   55.8398   -8.4245 C   0  0  0  0  0  0
   -4.4989   55.5849   -9.2393 C   0  0  0  0  0  0
    2.3590   53.4856  -10.3566 N   0  0  0  0  0  0
    1.4426   58.4705   -7.1460 H   0  0  0  0  0  0
   -1.2683   53.9407  -10.3774 H   0  0  0  0  0  0
    2.0309   53.5545  -11.3200 H   0  0  0  0  0  0
    2.4062   52.5042  -10.0828 H   0  0  0  0  0  0
  1  2  2  0  0  0
  1  3  1  0  0  0
  1  4  1  0  0  0
  3 29  1  0  0  0
  4  5  2  0  0  0
  4 13  1  0  0  0
  5  6  1  0  0  0
  6  7  1  0  0  0
  6 28  1  0  0  0
  7  8  1  0  0  0
  7 12  1  0  0  0
  8  9  1  0  0  0
  8 30  1  0  0  0
  9 10  2  0  0  0
  9 11  1  0  0  0
 12 13  1  0  0  0
 12 14  1  0  0  0
 14 15  2  0  0  0
 14 16  1  0  0  0
 16 17  1  0  0  0
 16 25  1  0  0  0
 17 18  1  0  0  0
 18 19  1  0  0  0
 19 20  2  0  0  0
 19 21  1  0  0  0
 20 22  1  0  0  0
 21 23  2  0  0  0
 22 24  2  0  0  0
 23 24  1  0  0  0
 25 26  1  0  0  0
 26 27  1  0  0  0
 28 31  1  0  0  0
 28 32  1  0  0  0
M  END
>  <CHROM.0>
63.79096608,-23.14166385,-63.40233308,102.26081610,28.44591664,-45.21422369
-27.01791082,-48.79476132

>  <CHROM.1>
-175.72713245,6.36820053,-137.01431215,-100.62938043,-29.54431903,49.63802500
-74.33279405,132.05304225,-44.69061495,-71.52997773,-1.25435539,56.38708258
-10.42935528,0.18726430,-0.55577953,0.79080870

>  <FORMUL>
      DPC    C20 H27 N3 O5

>  <HET>
 DPC  A 466      28

>  <HETNAM>
     DPC 5-ACETYLAMINO-4-AMINO-6-(PHENETHYL-PROPYL-CARBAMOYL)-5,
   2 DPC 6-DIHYDRO-4H-PYRAN-2-CARBOXYLIC ACID

>  <Name>
DPC.pdb

>  <RI>
0

>  <Rbt.Current_Directory>
/home/malgorzata/Desktop/rDOCK_IFD/Wyniki/11_neuraminidase

>  <Rbt.Executable>
rbdock ($Id: //depot/dev/client3/rdock/2013.1/src/exe/rbdock.cxx#4 $)

>  <Rbt.Library>
libRbt.so (2013.1, Build901 2013/11/27)

>  <Rbt.Parameter_File>
/home/malgorzata/Desktop/rDock_2013.1_src/data/scripts/soft_docking.prm

>  <Rbt.Receptor>
cavity.prm

>  <SCORE>
-46.0261

>  <SCORE.INTER>
-28.1623

>  <SCORE.INTER.CONST>
1

>  <SCORE.INTER.POLAR>
-3.65782

>  <SCORE.INTER.REPUL>
0

>  <SCORE.INTER.ROT>
9

>  <SCORE.INTER.VDW>
-30.1257

>  <SCORE.INTER.norm>
-1.0058

>  <SCORE.INTRA>
4.14591

>  <SCORE.INTRA.DIHEDRAL>
6.26482

>  <SCORE.INTRA.DIHEDRAL.0>
7.68839

>  <SCORE.INTRA.POLAR>
-0.00402639

>  <SCORE.INTRA.POLAR.0>
0

>  <SCORE.INTRA.REPUL>
0

>  <SCORE.INTRA.REPUL.0>
0

>  <SCORE.INTRA.VDW>
2.90663

>  <SCORE.INTRA.VDW.0>
-2.73227

>  <SCORE.INTRA.norm>
0.148068

>  <SCORE.RESTR>
0

>  <SCORE.RESTR.CAVITY>
0

>  <SCORE.RESTR.norm>
0

>  <SCORE.SYSTEM>
-22.0097

>  <SCORE.SYSTEM.CONST>
0

>  <SCORE.SYSTEM.DIHEDRAL>
3.55696

>  <SCORE.SYSTEM.POLAR>
-6.26496

>  <SCORE.SYSTEM.REPUL>
0.528723

>  <SCORE.SYSTEM.VDW>
-5.13098

>  <SCORE.SYSTEM.norm>
-0.786062

>  <SCORE.heavy>
28

>  <SCORE.norm>
-1.64379

$$$$
DPC.pdb
  rDOCK(R)          3D
libRbt.so/2013.1/901 2013/11/27
 32 33  0  0  0  0  0  0  0  0999 V2000
   -2.8228   60.8203   -5.3548 C   0  0  0  0  0  0
   -2.0000   61.4499   -4.7000 O   0  0  0  0  0  0
   -3.9787   61.2166   -5.4189 O   0  0  0  0  0  0
   -2.3676   59.6668   -6.1514 C   0  0  0  0  0  0
   -1.2072   59.0593   -5.8824 C   0  0  0  0  0  0
   -0.7752   57.8479   -6.6633 C   0  0  0  0  0  0
   -1.5679   57.6888   -7.9580 C   0  0  0  0  0  0
   -1.4290   56.3199   -8.4414 N   0  0  0  0  0  0
   -0.9929   55.2896   -7.7006 C   0  0  0  0  0  0
   -0.6300   55.4462   -6.5473 O   0  0  0  0  0  0
   -1.0201   53.9023   -8.3678 C   0  0  0  0  0  0
   -3.0420   57.9710   -7.6774 C   0  0  0  0  0  0
   -3.2052   59.2362   -7.0947 O   0  0  0  0  0  0
   -3.8001   58.0573   -8.9828 C   0  0  0  0  0  0
   -3.4693   58.7636   -9.5596 O   0  0  0  0  0  0
   -4.6803   57.1188   -9.3036 N   0  0  0  0  0  0
   -5.3050   57.2362  -10.6399 C   0  0  0  0  0  0
   -4.4195   56.6665  -11.7527 C   0  0  0  0  0  0
   -4.3458   55.1606  -11.5965 C   0  0  0  0  0  0
   -5.2795   54.4801  -10.7833 C   0  0  0  0  0  0
   -3.3328   54.4253  -12.2287 C   0  0  0  0  0  0
   -5.1759   53.0929  -10.5788 C   0  0  0  0  0  0
   -3.2290   53.0454  -12.0269 C   0  0  0  0  0  0
   -4.1365   52.3737  -11.1965 C   0  0  0  0  0  0
   -5.1044   56.0504   -8.4014 C   0  0  0  0  0  0
   -6.5292   56.2665   -7.8630 C   0  0  0  0  0  0
   -7.2907   54.9797   -7.4939 C   0  0  0  0  0  0
    0.6286   57.9559   -6.9588 N   0  0  0  0  0  0
   -4.6000   60.9563   -4.7676 H   0  0  0  0  0  0
   -1.6727   56.1388   -9.3780 H   0  0  0  0  0  0
    0.7684   58.6452   -7.6976 H   0  0  0  0  0  0
    0.9818   57.0502   -7.2675 H   0  0  0  0  0  0
  1  2  2  0  0  0
  1  3  1  0  0  0
  1  4  1  0  0  0
  3 29  1  0  0  0
  4  5  2  0  0  0
  4 13  1  0  0  0
  5  6  1  0  0  0
  6  7  1  0  0  0
  6 28  1  0  0  0
  7  8  1  0  0  0
  7 12  1  0  0  0
  8  9  1  0  0  0
  8 30  1  0  0  0
  9 10  2  0  0  0
  9 11  1  0  0  0
 12 13  1  0  0  0
 12 14  1  0  0  0
 14 15  2  0  0  0
 14 16  1  0  0  0
 16 17  1  0  0  0
 16 25  1  0  0  0
 17 18  1  0  0  0
 18 19  1  0  0  0
 19 20  2  0  0  0
 19 21  1  0  0  0
 20 22  1  0  0  0
 21 23  2  0  0  0
 22 24  2  0  0  0
 23 24  1  0  0  0
 25 26  1  0  0  0
 26 27  1  0  0  0
 28 31  1  0  0  0
 28 32  1  0  0  0
M  END
>  <CHROM.0>
64.28973457,113.12949676,-35.06638097,-92.72447990,106.69186429,-63.82208817
-174.61015424,-43.41295102

>  <CHROM.1>
-87.60339722,19.90364051,-74.54463298,16.55095191,-60.15417612,82.08527545
106.43417510,68.82963007,16.20258396,152.19824387,-3.21405538,56.90951541
-8.40566629,1.25019730,-0.29009419,0.62680515

>  <FORMUL>
      DPC    C20 H27 N3 O5

>  <HET>
 DPC  A 466      28

>  <HETNAM>
     DPC 5-ACETYLAMINO-4-AMINO-6-(PHENETHYL-PROPYL-CARBAMOYL)-5,
   2 DPC 6-DIHYDRO-4H-PYRAN-2-CARBOXYLIC ACID

>  <Name>
DPC.pdb

>  <RI>
0

>  <Rbt.Current_Directory>
/home/malgorzata/Desktop/rDOCK_IFD/Wyniki/11_neuraminidase

>  <Rbt.Executable>
rbdock ($Id: //depot/dev/client3/rdock/2013.1/src/exe/rbdock.cxx#4 $)

>  <Rbt.Library>
libRbt.so (2013.1, Build901 2013/11/27)

>  <Rbt.Parameter_File>
/home/malgorzata/Desktop/rDock_2013.1_src/data/scripts/soft_docking.prm

>  <Rbt.Receptor>
cavity.prm

>  <SCORE>
-44.8643

>  <SCORE.INTER>
-27.4603

>  <SCORE.INTER.CONST>
1

>  <SCORE.INTER.POLAR>
-4.48871

>  <SCORE.INTER.REPUL>
0.00397827

>  <SCORE.INTER.ROT>
9

>  <SCORE.INTER.VDW>
-26.6186

>  <SCORE.INTER.norm>
-0.980724

>  <SCORE.INTRA>
11.5758

>  <SCORE.INTRA.DIHEDRAL>
25.9181

>  <SCORE.INTRA.DIHEDRAL.0>
7.68839

>  <SCORE.INTRA.POLAR>
0

>  <SCORE.INTRA.POLAR.0>
0

>  <SCORE.INTRA.REPUL>
0

>  <SCORE.INTRA.REPUL.0>
0

>  <SCORE.INTRA.VDW>
6.39219

>  <SCORE.INTRA.VDW.0>
-2.73227

>  <SCORE.INTRA.norm>
0.413421

>  <SCORE.RESTR>
0

>  <SCORE.RESTR.CAVITY>
0

>  <SCORE.RESTR.norm>
0

>  <SCORE.SYSTEM>
-28.9798

>  <SCORE.SYSTEM.CONST>
0

>  <SCORE.SYSTEM.DIHEDRAL>
2.5461

>  <SCORE.SYSTEM.POLAR>
-6.85428

>  <SCORE.SYSTEM.VDW>
-6.94829

>  <SCORE.SYSTEM.norm>
-1.03499

>  <SCORE.heavy>
28

>  <SCORE.norm>
-1.60229

$$$$
DPC.pdb
  rDOCK(R)          3D
libRbt.so/2013.1/901 2013/11/27
 32 33  0  0  0  0  0  0  0  0999 V2000
   -2.0625   58.0813   -5.6207 C   0  0  0  0  0  0
   -2.9710   58.8838   -5.4402 O   0  0  0  0  0  0
   -1.2004   57.9381   -4.7641 O   0  0  0  0  0  0
   -2.1011   57.2176   -6.8144 C   0  0  0  0  0  0
   -1.1740   56.2745   -7.0120 C   0  0  0  0  0  0
   -1.2511   55.3594   -8.2039 C   0  0  0  0  0  0
   -2.2021   55.8907   -9.2730 C   0  0  0  0  0  0
   -2.5695   54.8033  -10.1727 N   0  0  0  0  0  0
   -2.4734   54.8542  -11.5102 C   0  0  0  0  0  0
   -2.1011   55.8647  -12.0816 O   0  0  0  0  0  0
   -2.8123   53.5609  -12.2739 C   0  0  0  0  0  0
   -3.4625   56.4256   -8.5972 C   0  0  0  0  0  0
   -3.1395   57.3906   -7.6322 O   0  0  0  0  0  0
   -4.3035   57.1715   -9.6085 C   0  0  0  0  0  0
   -3.7863   57.4769  -10.3702 O   0  0  0  0  0  0
   -5.6234   57.2002   -9.4835 N   0  0  0  0  0  0
   -6.3693   57.8743  -10.5693 C   0  0  0  0  0  0
   -6.8444   56.8964  -11.6486 C   0  0  0  0  0  0
   -7.0362   57.6558  -12.9464 C   0  0  0  0  0  0
   -6.1306   58.6744  -13.3187 C   0  0  0  0  0  0
   -8.1306   57.3823  -13.7794 C   0  0  0  0  0  0
   -6.3405   59.4293  -14.4861 C   0  0  0  0  0  0
   -8.3401   58.1316  -14.9414 C   0  0  0  0  0  0
   -7.4593   59.1624  -15.2962 C   0  0  0  0  0  0
   -6.3484   56.6801   -8.3264 C   0  0  0  0  0  0
   -6.0059   55.2099   -8.0302 C   0  0  0  0  0  0
   -5.5619   54.3832   -9.2514 C   0  0  0  0  0  0
    0.0668   55.1976   -8.7575 N   0  0  0  0  0  0
   -0.7801   57.1076   -4.6569 H   0  0  0  0  0  0
   -2.9123   53.9729   -9.7702 H   0  0  0  0  0  0
    0.5477   54.4387   -8.2746 H   0  0  0  0  0  0
    0.5936   56.0632   -8.6399 H   0  0  0  0  0  0
  1  2  2  0  0  0
  1  3  1  0  0  0
  1  4  1  0  0  0
  3 29  1  0  0  0
  4  5  2  0  0  0
  4 13  1  0  0  0
  5  6  1  0  0  0
  6  7  1  0  0  0
  6 28  1  0  0  0
  7  8  1  0  0  0
  7 12  1  0  0  0
  8  9  1  0  0  0
  8 30  1  0  0  0
  9 10  2  0  0  0
  9 11  1  0  0  0
 12 13  1  0  0  0
 12 14  1  0  0  0
 14 15  2  0  0  0
 14 16  1  0  0  0
 16 17  1  0  0  0
 16 25  1  0  0  0
 17 18  1  0  0  0
 18 19  1  0  0  0
 19 20  2  0  0  0
 19 21  1  0  0  0
 20 22  1  0  0  0
 21 23  2  0  0  0
 22 24  2  0  0  0
 23 24  1  0  0  0
 25 26  1  0  0  0
 26 27  1  0  0  0
 28 31  1  0  0  0
 28 32  1  0  0  0
M  END
>  <CHROM.0>
79.74134013,128.39947883,179.94284879,-14.87494904,157.17298071,-131.69090114
-159.45368253,-8.32500893

>  <CHROM.1>
149.52613923,-176.05933935,86.43912729,-128.11208330,-22.00843135,94.09975271
-55.03909639,-155.65702053,38.79101013,-27.49699097,-4.12691725,56.79375203
-9.91950875,0.73580459,-0.61943610,1.16925571

>  <FORMUL>
      DPC    C20 H27 N3 O5

>  <HET>
 DPC  A 466      28

>  <HETNAM>
     DPC 5-ACETYLAMINO-4-AMINO-6-(PHENETHYL-PROPYL-CARBAMOYL)-5,
   2 DPC 6-DIHYDRO-4H-PYRAN-2-CARBOXYLIC ACID

>  <Name>
DPC.pdb

>  <RI>
0

>  <Rbt.Current_Directory>
/home/malgorzata/Desktop/rDOCK_IFD/Wyniki/11_neuraminidase

>  <Rbt.Executable>
rbdock ($Id: //depot/dev/client3/rdock/2013.1/src/exe/rbdock.cxx#4 $)

>  <Rbt.Library>
libRbt.so (2013.1, Build901 2013/11/27)

>  <Rbt.Parameter_File>
/home/malgorzata/Desktop/rDock_2013.1_src/data/scripts/soft_docking.prm

>  <Rbt.Receptor>
cavity.prm

>  <SCORE>
-55.5347

>  <SCORE.INTER>
-34.3748

>  <SCORE.INTER.CONST>
1

>  <SCORE.INTER.POLAR>
-6.36347

>  <SCORE.INTER.REPUL>
0.0627209

>  <SCORE.INTER.ROT>
9

>  <SCORE.INTER.VDW>
-27.4526

>  <SCORE.INTER.norm>
-1.22767

>  <SCORE.INTRA>
6.83176

>  <SCORE.INTRA.DIHEDRAL>
9.17618

>  <SCORE.INTRA.DIHEDRAL.0>
7.68839

>  <SCORE.INTRA.POLAR>
0

>  <SCORE.INTRA.POLAR.0>
0

>  <SCORE.INTRA.REPUL>
0

>  <SCORE.INTRA.REPUL.0>
0

>  <SCORE.INTRA.VDW>
4.99652

>  <SCORE.INTRA.VDW.0>
-2.73227

>  <SCORE.INTRA.norm>
0.243991

>  <SCORE.RESTR>
0.0234176

>  <SCORE.RESTR.CAVITY>
0.0234176

>  <SCORE.RESTR.norm>
0.000836343

>  <SCORE.SYSTEM>
-28.015

>  <SCORE.SYSTEM.CONST>
0

>  <SCORE.SYSTEM.DIHEDRAL>
4.67328

>  <SCORE.SYSTEM.POLAR>
-7.19383

>  <SCORE.SYSTEM.VDW>
-5.89265

>  <SCORE.SYSTEM.norm>
-1.00054

>  <SCORE.heavy>
28

>  <SCORE.norm>
-1.98338

$$$$
DPC.pdb
  rDOCK(R)          3D
libRbt.so/2013.1/901 2013/11/27
 32 33  0  0  0  0  0  0  0  0999 V2000
   -2.3034   58.5246   -5.4957 C   0  0  0  0  0  0
   -1.4417   58.6326   -4.6310 O   0  0  0  0  0  0
   -3.3289   59.1873   -5.4163 O   0  0  0  0  0  0
   -2.0262   57.6885   -6.6775 C   0  0  0  0  0  0
   -0.9248   56.9331   -6.7434 C   0  0  0  0  0  0
   -0.6760   56.0395   -7.9280 C   0  0  0  0  0  0
   -1.5586   56.4071   -9.1178 C   0  0  0  0  0  0
   -1.5997   55.2865  -10.0502 N   0  0  0  0  0  0
   -1.1039   55.3125  -11.2968 C   0  0  0  0  0  0
   -0.6089   56.3250  -11.7617 O   0  0  0  0  0  0
   -1.1524   53.9902  -12.0842 C   0  0  0  0  0  0
   -2.9733   56.6925   -8.6191 C   0  0  0  0  0  0
   -2.9617   57.6837   -7.6271 O   0  0  0  0  0  0
   -3.7955   57.2902   -9.7386 C   0  0  0  0  0  0
   -3.2742   57.4450  -10.5419 O   0  0  0  0  0  0
   -5.1123   57.3882   -9.6169 N   0  0  0  0  0  0
   -5.8428   57.8991  -10.7980 C   0  0  0  0  0  0
   -6.2929   59.3531  -10.6248 C   0  0  0  0  0  0
   -5.5204   60.2233  -11.5962 C   0  0  0  0  0  0
   -5.2548   61.5763  -11.2878 C   0  0  0  0  0  0
   -5.0869   59.7096  -12.8269 C   0  0  0  0  0  0
   -4.5993   62.4076  -12.2130 C   0  0  0  0  0  0
   -4.4341   60.5350  -13.7478 C   0  0  0  0  0  0
   -4.1967   61.8850  -13.4556 C   0  0  0  0  0  0
   -5.8456   57.0954   -8.3874 C   0  0  0  0  0  0
   -5.5272   55.6968   -7.8317 C   0  0  0  0  0  0
   -6.7558   54.8232   -7.5166 C   0  0  0  0  0  0
    0.7106   56.1294   -8.3007 N   0  0  0  0  0  0
   -4.1258   58.8637   -5.7882 H   0  0  0  0  0  0
   -2.0212   54.4515   -9.7431 H   0  0  0  0  0  0
    1.2907   55.7729   -7.5412 H   0  0  0  0  0  0
    0.9510   57.1036   -8.4837 H   0  0  0  0  0  0
  1  2  2  0  0  0
  1  3  1  0  0  0
  1  4  1  0  0  0
  3 29  1  0  0  0
  4  5  2  0  0  0
  4 13  1  0  0  0
  5  6  1  0  0  0
  6  7  1  0  0  0
  6 28  1  0  0  0
  7  8  1  0  0  0
  7 12  1  0  0  0
  8  9  1  0  0  0
  8 30  1  0  0  0
  9 10  2  0  0  0
  9 11  1  0  0  0
 12 13  1  0  0  0
 12 14  1  0  0  0
 14 15  2  0  0  0
 14 16  1  0  0  0
 16 17  1  0  0  0
 16 25  1  0  0  0
 17 18  1  0  0  0
 18 19  1  0  0  0
 19 20  2  0  0  0
 19 21  1  0  0  0
 20 22  1  0  0  0
 21 23  2  0  0  0
 22 24  2  0  0  0
 23 24  1  0  0  0
 25 26  1  0  0  0
 26 27  1  0  0  0
 28 31  1  0  0  0
 28 32  1  0  0  0
M  END
>  <CHROM.0>
41.66255195,-12.88970513,-97.94234762,125.84884838,115.43409496,144.29118990
6.41791942,-107.84269858

>  <CHROM.1>
-151.43398383,7.77566060,63.80343812,-114.96215332,-4.12071537,-104.18664442
-53.60531193,112.50724237,-151.14273031,-128.76924145,-3.30298899,57.73123306
-9.43130238,0.82399940,-0.79107023,1.64784870

>  <FORMUL>
      DPC    C20 H27 N3 O5

>  <HET>
 DPC  A 466      28

>  <HETNAM>
     DPC 5-ACETYLAMINO-4-AMINO-6-(PHENETHYL-PROPYL-CARBAMOYL)-5,
   2 DPC 6-DIHYDRO-4H-PYRAN-2-CARBOXYLIC ACID

>  <Name>
DPC.pdb

>  <RI>
0

>  <Rbt.Current_Directory>
/home/malgorzata/Desktop/rDOCK_IFD/Wyniki/11_neuraminidase

>  <Rbt.Executable>
rbdock ($Id: //depot/dev/client3/rdock/2013.1/src/exe/rbdock.cxx#4 $)

>  <Rbt.Library>
libRbt.so (2013.1, Build901 2013/11/27)

>  <Rbt.Parameter_File>
/home/malgorzata/Desktop/rDock_2013.1_src/data/scripts/soft_docking.prm

>  <Rbt.Receptor>
cavity.prm

>  <SCORE>
-50.1445

>  <SCORE.INTER>
-31.6087

>  <SCORE.INTER.CONST>
1

>  <SCORE.INTER.POLAR>
-7.52442

>  <SCORE.INTER.REPUL>
0.607609

>  <SCORE.INTER.ROT>
9

>  <SCORE.INTER.VDW>
-23.4638

>  <SCORE.INTER.norm>
-1.12888

>  <SCORE.INTRA>
7.26042

>  <SCORE.INTRA.DIHEDRAL>
14.3811

>  <SCORE.INTRA.DIHEDRAL.0>
7.68839

>  <SCORE.INTRA.POLAR>
0

>  <SCORE.INTRA.POLAR.0>
0

>  <SCORE.INTRA.REPUL>
0

>  <SCORE.INTRA.REPUL.0>
0

>  <SCORE.INTRA.VDW>
4.38419

>  <SCORE.INTRA.VDW.0>
-2.73227

>  <SCORE.INTRA.norm>
0.259301

>  <SCORE.RESTR>
0.0709694

>  <SCORE.RESTR.CAVITY>
0.0709694

>  <SCORE.RESTR.norm>
0.00253462

>  <SCORE.SYSTEM>
-25.8672

>  <SCORE.SYSTEM.CONST>
0

>  <SCORE.SYSTEM.DIHEDRAL>
3.9074

>  <SCORE.SYSTEM.POLAR>
-6.39268

>  <SCORE.SYSTEM.VDW>
-6.08577

>  <SCORE.SYSTEM.norm>
-0.923828

>  <SCORE.heavy>
28

>  <SCORE.norm>
-1.79088

$$$$
DPC.pdb
  rDOCK(R)          3D
libRbt.so/2013.1/901 2013/11/27
 32 33  0  0  0  0  0  0  0  0999 V2000
   -1.5275   61.0856   -5.7357 C   0  0  0  0  0  0
   -2.2481   61.8850   -6.3219 O   0  0  0  0  0  0
   -0.8688   61.4553   -4.7730 O   0  0  0  0  0  0
   -1.5684   59.6663   -6.1310 C   0  0  0  0  0  0
   -0.5621   58.8386   -5.8300 C   0  0  0  0  0  0
   -0.6352   57.3788   -6.1872 C   0  0  0  0  0  0
   -1.7236   57.0957   -7.2192 C   0  0  0  0  0  0
   -2.0412   55.6725   -7.2047 N   0  0  0  0  0  0
   -1.4071   54.7417   -7.9342 C   0  0  0  0  0  0
   -0.5224   55.0432   -8.7169 O   0  0  0  0  0  0
   -1.8239   53.2788   -7.6954 C   0  0  0  0  0  0
   -2.9756   57.8895   -6.8532 C   0  0  0  0  0  0
   -2.6830   59.2560   -6.7360 O   0  0  0  0  0  0
   -3.9739   57.8142   -7.9863 C   0  0  0  0  0  0
   -4.8799   57.6614   -7.6750 O   0  0  0  0  0  0
   -3.6009   58.1180   -9.2221 N   0  0  0  0  0  0
   -4.6662   58.1061  -10.2492 C   0  0  0  0  0  0
   -4.2295   57.4030  -11.5382 C   0  0  0  0  0  0
   -5.3624   57.4749  -12.5426 C   0  0  0  0  0  0
   -5.1279   57.1878  -13.9060 C   0  0  0  0  0  0
   -6.6502   57.8582  -12.1411 C   0  0  0  0  0  0
   -6.1577   57.3191  -14.8542 C   0  0  0  0  0  0
   -7.6757   57.9883  -13.0829 C   0  0  0  0  0  0
   -7.4369   57.7330  -14.4401 C   0  0  0  0  0  0
   -2.2200   58.3833   -9.6194 C   0  0  0  0  0  0
   -1.9627   59.8753   -9.8915 C   0  0  0  0  0  0
   -2.2888   60.3447  -11.3217 C   0  0  0  0  0  0
    0.6426   56.9551   -6.6943 N   0  0  0  0  0  0
   -0.4934   62.3137   -4.7641 H   0  0  0  0  0  0
   -2.7730   55.3733   -6.6179 H   0  0  0  0  0  0
    0.7516   57.2795   -7.6552 H   0  0  0  0  0  0
    0.6970   55.9368   -6.6710 H   0  0  0  0  0  0
  1  2  2  0  0  0
  1  3  1  0  0  0
  1  4  1  0  0  0
  3 29  1  0  0  0
  4  5  2  0  0  0
  4 13  1  0  0  0
  5  6  1  0  0  0
  6  7  1  0  0  0
  6 28  1  0  0  0
  7  8  1  0  0  0
  7 12  1  0  0  0
  8  9  1  0  0  0
  8 30  1  0  0  0
  9 10  2  0  0  0
  9 11  1  0  0  0
 12 13  1  0  0  0
 12 14  1  0  0  0
 14 15  2  0  0  0
 14 16  1  0  0  0
 16 17  1  0  0  0
 16 25  1  0  0  0
 17 18  1  0  0  0
 18 19  1  0  0  0
 19 20  2  0  0  0
 19 21  1  0  0  0
 20 22  1  0  0  0
 21 23  2  0  0  0
 22 24  2  0  0  0
 23 24  1  0  0  0
 25 26  1  0  0  0
 26 27  1  0  0  0
 28 31  1  0  0  0
 28 32  1  0  0  0
M  END
>  <CHROM.0>
-98.92017207,-155.64523924,-132.06076758,6.46455106,179.72186559,17.80699616
-137.36627611,-103.45788549

>  <CHROM.1>
-36.41097094,159.94641414,-77.10203799,-87.92368267,136.58987524,-135.39648329
-106.69383845,-178.32611780,165.17807480,-86.26267279,-3.00322929,58.00333746
-8.92890963,0.37559124,-0.90931238,0.30740416

>  <FORMUL>
      DPC    C20 H27 N3 O5

>  <HET>
 DPC  A 466      28

>  <HETNAM>
     DPC 5-ACETYLAMINO-4-AMINO-6-(PHENETHYL-PROPYL-CARBAMOYL)-5,
   2 DPC 6-DIHYDRO-4H-PYRAN-2-CARBOXYLIC ACID

>  <Name>
DPC.pdb

>  <RI>
0

>  <Rbt.Current_Directory>
/home/malgorzata/Desktop/rDOCK_IFD/Wyniki/11_neuraminidase

>  <Rbt.Executable>
rbdock ($Id: //depot/dev/client3/rdock/2013.1/src/exe/rbdock.cxx#4 $)

>  <Rbt.Library>
libRbt.so (2013.1, Build901 2013/11/27)

>  <Rbt.Parameter_File>
/home/malgorzata/Desktop/rDock_2013.1_src/data/scripts/soft_docking.prm

>  <Rbt.Receptor>
cavity.prm

>  <SCORE>
-51.7417

>  <SCORE.INTER>
-34.1636

>  <SCORE.INTER.CONST>
1

>  <SCORE.INTER.POLAR>
-5.33828

>  <SCORE.INTER.REPUL>
0.0376056

>  <SCORE.INTER.ROT>
9

>  <SCORE.INTER.VDW>
-30.6014

>  <SCORE.INTER.norm>
-1.22013

>  <SCORE.INTRA>
5.47392

>  <SCORE.INTRA.DIHEDRAL>
9.55277

>  <SCORE.INTRA.DIHEDRAL.0>
7.68839

>  <SCORE.INTRA.POLAR>
0

>  <SCORE.INTRA.POLAR.0>
0

>  <SCORE.INTRA.REPUL>
0

>  <SCORE.INTRA.REPUL.0>
0

>  <SCORE.INTRA.VDW>
3.56337

>  <SCORE.INTRA.VDW.0>
-2.73227

>  <SCORE.INTRA.norm>
0.195497

>  <SCORE.RESTR>
0

>  <SCORE.RESTR.CAVITY>
0

>  <SCORE.RESTR.norm>
0

>  <SCORE.SYSTEM>
-23.052

>  <SCORE.SYSTEM.CONST>
0

>  <SCORE.SYSTEM.DIHEDRAL>
9.6508

>  <SCORE.SYSTEM.POLAR>
-6.53993

>  <SCORE.SYSTEM.VDW>
-5.64164

>  <SCORE.SYSTEM.norm>
-0.823286

>  <SCORE.heavy>
28

>  <SCORE.norm>
-1.84792

$$$$
DPC.pdb
  rDOCK(R)          3D
libRbt.so/2013.1/901 2013/11/27
 32 33  0  0  0  0  0  0  0  0999 V2000
    3.0763   56.0788   -7.0804 C   0  0  0  0  0  0
    3.0792   55.3648   -6.0844 O   0  0  0  0  0  0
    3.9066   55.8958   -7.9604 O   0  0  0  0  0  0
    1.9914   57.0621   -7.2494 C   0  0  0  0  0  0
    2.2362   58.3751   -7.1852 C   0  0  0  0  0  0
    1.1345   59.3740   -7.4141 C   0  0  0  0  0  0
   -0.2479   58.7347   -7.3138 C   0  0  0  0  0  0
   -1.2277   59.6056   -7.9527 N   0  0  0  0  0  0
   -2.3281   60.0852   -7.3529 C   0  0  0  0  0  0
   -2.6123   59.7768   -6.2082 O   0  0  0  0  0  0
   -3.1800   61.0752   -8.1684 C   0  0  0  0  0  0
   -0.2287   57.3906   -8.0381 C   0  0  0  0  0  0
    0.7869   56.5662   -7.5325 O   0  0  0  0  0  0
   -1.5063   56.6371   -7.7442 C   0  0  0  0  0  0
   -2.1224   57.1480   -7.1961 O   0  0  0  0  0  0
   -1.7561   55.4879   -8.3569 N   0  0  0  0  0  0
   -3.0709   54.8691   -8.0772 C   0  0  0  0  0  0
   -4.1864   55.4396   -8.9587 C   0  0  0  0  0  0
   -5.1498   54.3239   -9.3116 C   0  0  0  0  0  0
   -6.5432   54.5128   -9.1736 C   0  0  0  0  0  0
   -4.6732   53.0794   -9.7482 C   0  0  0  0  0  0
   -7.4390   53.4607   -9.4332 C   0  0  0  0  0  0
   -5.5630   52.0323  -10.0077 C   0  0  0  0  0  0
   -6.9434   52.2091   -9.8422 C   0  0  0  0  0  0
   -0.7975   54.7886   -9.2096 C   0  0  0  0  0  0
   -0.4987   55.5548  -10.5096 C   0  0  0  0  0  0
   -1.7178   55.8018  -11.4178 C   0  0  0  0  0  0
    1.2547   60.4346   -6.4496 N   0  0  0  0  0  0
    4.0236   56.5361   -8.6346 H   0  0  0  0  0  0
   -1.0706   59.8598   -8.8907 H   0  0  0  0  0  0
    0.7832   61.2683   -6.8004 H   0  0  0  0  0  0
    2.2411   60.6421   -6.2935 H   0  0  0  0  0  0
  1  2  2  0  0  0
  1  3  1  0  0  0
  1  4  1  0  0  0
  3 29  1  0  0  0
  4  5  2  0  0  0
  4 13  1  0  0  0
  5  6  1  0  0  0
  6  7  1  0  0  0
  6 28  1  0  0  0
  7  8  1  0  0  0
  7 12  1  0  0  0
  8  9  1  0  0  0
  8 30  1  0  0  0
  9 10  2  0  0  0
  9 11  1  0  0  0
 12 13  1  0  0  0
 12 14  1  0  0  0
 14 15  2  0  0  0
 14 16  1  0  0  0
 16 17  1  0  0  0
 16 25  1  0  0  0
 17 18  1  0  0  0
 18 19  1  0  0  0
 19 20  2  0  0  0
 19 21  1  0  0  0
 20 22  1  0  0  0
 21 23  2  0  0  0
 22 24  2  0  0  0
 23 24  1  0  0  0
 25 26  1  0  0  0
 26 27  1  0  0  0
 28 31  1  0  0  0
 28 32  1  0  0  0
M  END
>  <CHROM.0>
-149.23282052,125.72003442,60.80093595,-132.26705963,30.00992183,46.61171779
33.02003292,-6.73376569

>  <CHROM.1>
-167.61316816,112.21076623,157.71358644,-124.06006049,2.95738488,83.83939001
-67.55677718,143.73123537,132.20524636,-60.32915285,-1.48478656,56.53831507
-8.22222495,-0.60433773,0.14788061,-2.85664442

>  <FORMUL>
      DPC    C20 H27 N3 O5

>  <HET>
 DPC  A 466      28

>  <HETNAM>
     DPC 5-ACETYLAMINO-4-AMINO-6-(PHENETHYL-PROPYL-CARBAMOYL)-5,
   2 DPC 6-DIHYDRO-4H-PYRAN-2-CARBOXYLIC ACID

>  <Name>
DPC.pdb

>  <RI>
0

>  <Rbt.Current_Directory>
/home/malgorzata/Desktop/rDOCK_IFD/Wyniki/11_neuraminidase

>  <Rbt.Executable>
rbdock ($Id: //depot/dev/client3/rdock/2013.1/src/exe/rbdock.cxx#4 $)

>  <Rbt.Library>
libRbt.so (2013.1, Build901 2013/11/27)

>  <Rbt.Parameter_File>
/home/malgorzata/Desktop/rDock_2013.1_src/data/scripts/soft_docking.prm

>  <Rbt.Receptor>
cavity.prm

>  <SCORE>
-45.9923

>  <SCORE.INTER>
-32.59

>  <SCORE.INTER.CONST>
1

>  <SCORE.INTER.POLAR>
-3.94653

>  <SCORE.INTER.REPUL>
0

>  <SCORE.INTER.ROT>
9

>  <SCORE.INTER.VDW>
-33.5718

>  <SCORE.INTER.norm>
-1.16393

>  <SCORE.INTRA>
4.89781

>  <SCORE.INTRA.DIHEDRAL>
13.8741

>  <SCORE.INTRA.DIHEDRAL.0>
7.68839

>  <SCORE.INTRA.POLAR>
0

>  <SCORE.INTRA.POLAR.0>
0

>  <SCORE.INTRA.REPUL>
0

>  <SCORE.INTRA.REPUL.0>
0

>  <SCORE.INTRA.VDW>
2.12298

>  <SCORE.INTRA.VDW.0>
-2.73227

>  <SCORE.INTRA.norm>
0.174922

>  <SCORE.RESTR>
0.306514

>  <SCORE.RESTR.CAVITY>
0.306514

>  <SCORE.RESTR.norm>
0.0109469

>  <SCORE.SYSTEM>
-18.6066

>  <SCORE.SYSTEM.CONST>
0

>  <SCORE.SYSTEM.DIHEDRAL>
7.44298

>  <SCORE.SYSTEM.POLAR>
-5.69515

>  <SCORE.SYSTEM.REPUL>
0.716808

>  <SCORE.SYSTEM.VDW>
-6.54866

>  <SCORE.SYSTEM.norm>
-0.664522

>  <SCORE.heavy>
28

>  <SCORE.norm>
-1.64258

$$$$
DPC.pdb
  rDOCK(R)          3D
libRbt.so/2013.1/901 2013/11/27
 32 33  0  0  0  0  0  0  0  0999 V2000
   -6.0278   60.2110   -9.2276 C   0  0  0  0  0  0
   -6.4026   60.8902  -10.1763 O   0  0  0  0  0  0
   -5.7796   60.7489   -8.1569 O   0  0  0  0  0  0
   -6.0050   58.7438   -9.3663 C   0  0  0  0  0  0
   -6.8441   57.9730   -8.6664 C   0  0  0  0  0  0
   -6.8538   56.4802   -8.8543 C   0  0  0  0  0  0
   -5.5994   55.9851   -9.5693 C   0  0  0  0  0  0
   -5.8450   54.6499  -10.1018 N   0  0  0  0  0  0
   -6.2703   53.6050   -9.3751 C   0  0  0  0  0  0
   -6.4425   53.6972   -8.1717 O   0  0  0  0  0  0
   -6.5709   52.3071  -10.1470 C   0  0  0  0  0  0
   -5.2785   56.9309  -10.7244 C   0  0  0  0  0  0
   -5.1559   58.2513  -10.2682 O   0  0  0  0  0  0
   -3.9152   56.5995  -11.2883 C   0  0  0  0  0  0
   -3.2515   56.4527  -10.5962 O   0  0  0  0  0  0
   -3.7703   56.3723  -12.5867 N   0  0  0  0  0  0
   -2.4196   55.9646  -13.0333 C   0  0  0  0  0  0
   -2.2060   54.4502  -12.9465 C   0  0  0  0  0  0
   -1.1758   54.1623  -11.8726 C   0  0  0  0  0  0
   -1.5372   54.2007  -10.5072 C   0  0  0  0  0  0
    0.1558   53.8863  -12.2151 C   0  0  0  0  0  0
   -0.5722   54.0026   -9.5039 C   0  0  0  0  0  0
    1.1164   53.6882  -11.2184 C   0  0  0  0  0  0
    0.7654   53.7559   -9.8632 C   0  0  0  0  0  0
   -4.8271   56.5701  -13.5761 C   0  0  0  0  0  0
   -5.3211   58.0261  -13.6256 C   0  0  0  0  0  0
   -6.7425   58.2532  -13.0779 C   0  0  0  0  0  0
   -6.9666   55.8459   -7.5680 N   0  0  0  0  0  0
   -6.1648   61.5772   -7.9484 H   0  0  0  0  0  0
   -5.6877   54.5047  -11.0627 H   0  0  0  0  0  0
   -7.8763   56.0627   -7.1607 H   0  0  0  0  0  0
   -6.2284   56.1894   -6.9536 H   0  0  0  0  0  0
  1  2  2  0  0  0
  1  3  1  0  0  0
  1  4  1  0  0  0
  3 29  1  0  0  0
  4  5  2  0  0  0
  4 13  1  0  0  0
  5  6  1  0  0  0
  6  7  1  0  0  0
  6 28  1  0  0  0
  7  8  1  0  0  0
  7 12  1  0  0  0
  8  9  1  0  0  0
  8 30  1  0  0  0
  9 10  2  0  0  0
  9 11  1  0  0  0
 12 13  1  0  0  0
 12 14  1  0  0  0
 14 15  2  0  0  0
 14 16  1  0  0  0
 16 17  1  0  0  0
 16 25  1  0  0  0
 17 18  1  0  0  0
 18 19  1  0  0  0
 19 20  2  0  0  0
 19 21  1  0  0  0
 20 22  1  0  0  0
 21 23  2  0  0  0
 22 24  2  0  0  0
 23 24  1  0  0  0
 25 26  1  0  0  0
 26 27  1  0  0  0
 28 31  1  0  0  0
 28 32  1  0  0  0
M  END
>  <CHROM.0>
81.45370123,35.07049763,-178.75657715,-66.06000284,160.30531037,-143.52854088
-160.01962209,89.25526134

>  <CHROM.1>
23.21944361,-112.21915932,65.90924920,-54.68144040,-44.66307786,87.22817320
60.21301581,-112.55283735,77.91871010,-109.87645319,-4.36560275,56.22901752
-10.55496252,-2.67310275,-0.57658114,2.68731616

>  <FORMUL>
      DPC    C20 H27 N3 O5

>  <HET>
 DPC  A 466      28

>  <HETNAM>
     DPC 5-ACETYLAMINO-4-AMINO-6-(PHENETHYL-PROPYL-CARBAMOYL)-5,
   2 DPC 6-DIHYDRO-4H-PYRAN-2-CARBOXYLIC ACID

>  <Name>
DPC.pdb

>  <RI>
0

>  <Rbt.Current_Directory>
/home/malgorzata/Desktop/rDOCK_IFD/Wyniki/11_neuraminidase

>  <Rbt.Executable>
rbdock ($Id: //depot/dev/client3/rdock/2013.1/src/exe/rbdock.cxx#4 $)

>  <Rbt.Library>
libRbt.so (2013.1, Build901 2013/11/27)

>  <Rbt.Parameter_File>
/home/malgorzata/Desktop/rDock_2013.1_src/data/scripts/soft_docking.prm

>  <Rbt.Receptor>
cavity.prm

>  <SCORE>
-51.4203

>  <SCORE.INTER>
-30.4519

>  <SCORE.INTER.CONST>
1

>  <SCORE.INTER.POLAR>
-2.01418

>  <SCORE.INTER.REPUL>
0.0167565

>  <SCORE.INTER.ROT>
9

>  <SCORE.INTER.VDW>
-38.0875

>  <SCORE.INTER.norm>
-1.08757

>  <SCORE.INTRA>
7.12934

>  <SCORE.INTRA.DIHEDRAL>
23.1224

>  <SCORE.INTRA.DIHEDRAL.0>
7.68839

>  <SCORE.INTRA.POLAR>
0

>  <SCORE.INTRA.POLAR.0>
0

>  <SCORE.INTRA.REPUL>
0

>  <SCORE.INTRA.REPUL.0>
0

>  <SCORE.INTRA.VDW>
2.50485

>  <SCORE.INTRA.VDW.0>
-2.73227

>  <SCORE.INTRA.norm>
0.254619

>  <SCORE.RESTR>
0.414635

>  <SCORE.RESTR.CAVITY>
0.414635

>  <SCORE.RESTR.norm>
0.0148084

>  <SCORE.SYSTEM>
-28.5124

>  <SCORE.SYSTEM.CONST>
0

>  <SCORE.SYSTEM.DIHEDRAL>
4.95771

>  <SCORE.SYSTEM.POLAR>
-7.20481

>  <SCORE.SYSTEM.VDW>
-6.49493

>  <SCORE.SYSTEM.norm>
-1.0183

>  <SCORE.heavy>
28

>  <SCORE.norm>
-1.83644

$$$$
DPC.pdb
  rDOCK(R)          3D
libRbt.so/2013.1/901 2013/11/27
 32 33  0  0  0  0  0  0  0  0999 V2000
   -2.8806   54.0697   -9.2956 C   0  0  0  0  0  0
   -3.9567   54.6354   -9.1411 O   0  0  0  0  0  0
   -2.8319   53.0183   -9.9197 O   0  0  0  0  0  0
   -1.6515   54.7369   -8.8303 C   0  0  0  0  0  0
   -0.4499   54.3544   -9.2753 C   0  0  0  0  0  0
    0.7962   55.0763   -8.8393 C   0  0  0  0  0  0
    0.5538   55.9438   -7.6070 C   0  0  0  0  0  0
    1.6269   56.9244   -7.4909 N   0  0  0  0  0  0
    2.8362   56.6736   -6.9662 C   0  0  0  0  0  0
    3.1099   55.5827   -6.4958 O   0  0  0  0  0  0
    3.8655   57.8168   -7.0328 C   0  0  0  0  0  0
   -0.7759   56.6769   -7.7678 C   0  0  0  0  0  0
   -1.8194   55.7706   -8.0056 O   0  0  0  0  0  0
   -1.1481   57.3456   -6.4637 C   0  0  0  0  0  0
   -0.9341   56.7998   -5.6909 O   0  0  0  0  0  0
   -1.5460   58.6106   -6.4552 N   0  0  0  0  0  0
   -1.7998   59.2082   -5.1255 C   0  0  0  0  0  0
   -0.5977   59.9986   -4.5993 C   0  0  0  0  0  0
   -0.7538   61.4517   -5.0013 C   0  0  0  0  0  0
   -0.3107   61.8942   -6.2678 C   0  0  0  0  0  0
   -1.3092   62.3834   -4.1125 C   0  0  0  0  0  0
   -0.3893   63.2529   -6.6209 C   0  0  0  0  0  0
   -1.3888   63.7350   -4.4626 C   0  0  0  0  0  0
   -0.9219   64.1802   -5.7068 C   0  0  0  0  0  0
   -1.8087   59.3950   -7.6597 C   0  0  0  0  0  0
   -3.0822   58.9391   -8.3923 C   0  0  0  0  0  0
   -4.3582   58.9125   -7.5303 C   0  0  0  0  0  0
    1.8259   54.1103   -8.5632 N   0  0  0  0  0  0
   -3.6047   52.4986  -10.0228 H   0  0  0  0  0  0
    1.4516   57.8352   -7.8210 H   0  0  0  0  0  0
    2.3997   53.9775   -9.3960 H   0  0  0  0  0  0
    1.3977   53.2227   -8.3002 H   0  0  0  0  0  0
  1  2  2  0  0  0
  1  3  1  0  0  0
  1  4  1  0  0  0
  3 29  1  0  0  0
  4  5  2  0  0  0
  4 13  1  0  0  0
  5  6  1  0  0  0
  6  7  1  0  0  0
  6 28  1  0  0  0
  7  8  1  0  0  0
  7 12  1  0  0  0
  8  9  1  0  0  0
  8 30  1  0  0  0
  9 10  2  0  0  0
  9 11  1  0  0  0
 12 13  1  0  0  0
 12 14  1  0  0  0
 14 15  2  0  0  0
 14 16  1  0  0  0
 16 17  1  0  0  0
 16 25  1  0  0  0
 17 18  1  0  0  0
 18 19  1  0  0  0
 19 20  2  0  0  0
 19 21  1  0  0  0
 20 22  1  0  0  0
 21 23  2  0  0  0
 22 24  2  0  0  0
 23 24  1  0  0  0
 25 26  1  0  0  0
 26 27  1  0  0  0
 28 31  1  0  0  0
 28 32  1  0  0  0
M  END
>  <CHROM.0>
108.12095529,68.50637935,-75.11541118,56.79817639,70.41082915,-89.70858250
-155.82097567,-140.08565478

>  <CHROM.1>
-20.99352748,-162.10071041,93.73587247,-81.03371544,-39.07610448,96.21269841
70.79268480,92.82381006,-85.54731880,54.66179445,-0.72415929,57.79212317
-7.15999477,1.54934117,0.18978195,-2.72745299

>  <FORMUL>
      DPC    C20 H27 N3 O5

>  <HET>
 DPC  A 466      28

>  <HETNAM>
     DPC 5-ACETYLAMINO-4-AMINO-6-(PHENETHYL-PROPYL-CARBAMOYL)-5,
   2 DPC 6-DIHYDRO-4H-PYRAN-2-CARBOXYLIC ACID

>  <Name>
DPC.pdb

>  <RI>
0

>  <Rbt.Current_Directory>
/home/malgorzata/Desktop/rDOCK_IFD/Wyniki/11_neuraminidase

>  <Rbt.Executable>
rbdock ($Id: //depot/dev/client3/rdock/2013.1/src/exe/rbdock.cxx#4 $)

>  <Rbt.Library>
libRbt.so (2013.1, Build901 2013/11/27)

>  <Rbt.Parameter_File>
/home/malgorzata/Desktop/rDock_2013.1_src/data/scripts/soft_docking.prm

>  <Rbt.Receptor>
cavity.prm

>  <SCORE>
-49.9674

>  <SCORE.INTER>
-25.4088

>  <SCORE.INTER.CONST>
1

>  <SCORE.INTER.POLAR>
-4.24431

>  <SCORE.INTER.REPUL>
0.0286925

>  <SCORE.INTER.ROT>
9

>  <SCORE.INTER.VDW>
-25.5216

>  <SCORE.INTER.norm>
-0.907458

>  <SCORE.INTRA>
1.46301

>  <SCORE.INTRA.DIHEDRAL>
6.37598

>  <SCORE.INTRA.DIHEDRAL.0>
7.68839

>  <SCORE.INTRA.POLAR>
0

>  <SCORE.INTRA.POLAR.0>
0

>  <SCORE.INTRA.REPUL>
0

>  <SCORE.INTRA.REPUL.0>
0

>  <SCORE.INTRA.VDW>
0.187811

>  <SCORE.INTRA.VDW.0>
-2.73227

>  <SCORE.INTRA.norm>
0.0522502

>  <SCORE.RESTR>
0

>  <SCORE.RESTR.CAVITY>
0

>  <SCORE.RESTR.norm>
0

>  <SCORE.SYSTEM>
-26.0215

>  <SCORE.SYSTEM.CONST>
0

>  <SCORE.SYSTEM.DIHEDRAL>
9.56026

>  <SCORE.SYSTEM.POLAR>
-7.13324

>  <SCORE.SYSTEM.VDW>
-6.54867

>  <SCORE.SYSTEM.norm>
-0.929341

>  <SCORE.heavy>
28

>  <SCORE.norm>
-1.78455

$$$$
DPC.pdb
  rDOCK(R)          3D
libRbt.so/2013.1/901 2013/11/27
 32 33  0  0  0  0  0  0  0  0999 V2000
   -8.0736   59.7216   -9.3067 C   0  0  0  0  0  0
   -8.1947   60.8154   -8.7673 O   0  0  0  0  0  0
   -8.7677   59.4424  -10.2750 O   0  0  0  0  0  0
   -7.0042   58.8161   -8.8496 C   0  0  0  0  0  0
   -7.1993   57.4945   -8.7916 C   0  0  0  0  0  0
   -6.0858   56.5710   -8.3776 C   0  0  0  0  0  0
   -4.9472   57.3196   -7.6898 C   0  0  0  0  0  0
   -3.7485   56.4892   -7.7040 N   0  0  0  0  0  0
   -3.4213   55.6384   -8.6886 C   0  0  0  0  0  0
   -4.1537   55.4664   -9.6480 O   0  0  0  0  0  0
   -2.0588   54.9322   -8.5632 C   0  0  0  0  0  0
   -4.6674   58.6117   -8.4537 C   0  0  0  0  0  0
   -5.8318   59.3848   -8.5689 O   0  0  0  0  0  0
   -3.7181   59.4776   -7.6567 C   0  0  0  0  0  0
   -4.0694   59.7084   -6.7824 O   0  0  0  0  0  0
   -2.4879   59.6977   -8.1001 N   0  0  0  0  0  0
   -1.6010   60.4791   -7.2098 C   0  0  0  0  0  0
   -0.7125   59.5865   -6.3377 C   0  0  0  0  0  0
    0.6053   60.2954   -6.0956 C   0  0  0  0  0  0
    1.6736   60.1488   -7.0085 C   0  0  0  0  0  0
    0.7950   61.0792   -4.9484 C   0  0  0  0  0  0
    2.9205   60.7473   -6.7556 C   0  0  0  0  0  0
    2.0343   61.6759   -4.6960 C   0  0  0  0  0  0
    3.1040   61.5065   -5.5855 C   0  0  0  0  0  0
   -2.0044   59.2827   -9.4151 C   0  0  0  0  0  0
   -0.8762   58.2409   -9.3248 C   0  0  0  0  0  0
   -0.3267   57.7533  -10.6785 C   0  0  0  0  0  0
   -6.6139   55.5650   -7.4952 N   0  0  0  0  0  0
   -8.4580   58.8293  -10.9123 H   0  0  0  0  0  0
   -3.1356   56.5578   -6.9365 H   0  0  0  0  0  0
   -6.5768   54.6556   -7.9556 H   0  0  0  0  0  0
   -7.5816   55.7898   -7.2638 H   0  0  0  0  0  0
  1  2  2  0  0  0
  1  3  1  0  0  0
  1  4  1  0  0  0
  3 29  1  0  0  0
  4  5  2  0  0  0
  4 13  1  0  0  0
  5  6  1  0  0  0
  6  7  1  0  0  0
  6 28  1  0  0  0
  7  8  1  0  0  0
  7 12  1  0  0  0
  8  9  1  0  0  0
  8 30  1  0  0  0
  9 10  2  0  0  0
  9 11  1  0  0  0
 12 13  1  0  0  0
 12 14  1  0  0  0
 14 15  2  0  0  0
 14 16  1  0  0  0
 16 17  1  0  0  0
 16 25  1  0  0  0
 17 18  1  0  0  0
 18 19  1  0  0  0
 19 20  2  0  0  0
 19 21  1  0  0  0
 20 22  1  0  0  0
 21 23  2  0  0  0
 22 24  2  0  0  0
 23 24  1  0  0  0
 25 26  1  0  0  0
 26 27  1  0  0  0
 28 31  1  0  0  0
 28 32  1  0  0  0
M  END
>  <CHROM.0>
32.16917820,86.18424204,119.89789697,19.90693116,170.88364672,-66.44693100
-157.26622356,70.67618487

>  <CHROM.1>
152.66398865,143.03636198,112.51064992,33.56467039,-59.23145134,95.66161436
-115.88115275,147.87470827,-87.75463227,179.61851244,-3.16236552,58.73597282
-7.97348449,2.78429306,0.19295182,-2.81044718

>  <FORMUL>
      DPC    C20 H27 N3 O5

>  <HET>
 DPC  A 466      28

>  <HETNAM>
     DPC 5-ACETYLAMINO-4-AMINO-6-(PHENETHYL-PROPYL-CARBAMOYL)-5,
   2 DPC 6-DIHYDRO-4H-PYRAN-2-CARBOXYLIC ACID

>  <Name>
DPC.pdb

>  <RI>
0

>  <Rbt.Current_Directory>
/home/malgorzata/Desktop/rDOCK_IFD/Wyniki/11_neuraminidase

>  <Rbt.Executable>
rbdock ($Id: //depot/dev/client3/rdock/2013.1/src/exe/rbdock.cxx#4 $)

>  <Rbt.Library>
libRbt.so (2013.1, Build901 2013/11/27)

>  <Rbt.Parameter_File>
/home/malgorzata/Desktop/rDock_2013.1_src/data/scripts/soft_docking.prm

>  <Rbt.Receptor>
cavity.prm

>  <SCORE>
-42.8767

>  <SCORE.INTER>
-20.8452

>  <SCORE.INTER.CONST>
1

>  <SCORE.INTER.POLAR>
-4.38419

>  <SCORE.INTER.REPUL>
0

>  <SCORE.INTER.ROT>
9

>  <SCORE.INTER.VDW>
-20.3389

>  <SCORE.INTER.norm>
-0.74447

>  <SCORE.INTRA>
3.99517

>  <SCORE.INTRA.DIHEDRAL>
13.5417

>  <SCORE.INTRA.DIHEDRAL.0>
7.68839

>  <SCORE.INTRA.POLAR>
0

>  <SCORE.INTRA.POLAR.0>
0

>  <SCORE.INTRA.REPUL>
0

>  <SCORE.INTRA.REPUL.0>
0

>  <SCORE.INTRA.VDW>
1.28684

>  <SCORE.INTRA.VDW.0>
-2.73227

>  <SCORE.INTRA.norm>
0.142685

>  <SCORE.RESTR>
0.844126

>  <SCORE.RESTR.CAVITY>
0.844126

>  <SCORE.RESTR.norm>
0.0301473

>  <SCORE.SYSTEM>
-26.8709

>  <SCORE.SYSTEM.CONST>
0

>  <SCORE.SYSTEM.DIHEDRAL>
6.1769

>  <SCORE.SYSTEM.POLAR>
-7.38389

>  <SCORE.SYSTEM.REPUL>
0.174441

>  <SCORE.SYSTEM.VDW>
-5.72629

>  <SCORE.SYSTEM.norm>
-0.959674

>  <SCORE.heavy>
28

>  <SCORE.norm>
-1.53131

$$$$
DPC.pdb
  rDOCK(R)          3D
libRbt.so/2013.1/901 2013/11/27
 32 33  0  0  0  0  0  0  0  0999 V2000
   -2.4351   59.2653   -5.5379 C   0  0  0  0  0  0
   -2.1822   60.4551   -5.6879 O   0  0  0  0  0  0
   -3.1647   58.9109   -4.6217 O   0  0  0  0  0  0
   -1.9518   58.3018   -6.5431 C   0  0  0  0  0  0
   -0.8832   57.5346   -6.3034 C   0  0  0  0  0  0
   -0.4288   56.5137   -7.3110 C   0  0  0  0  0  0
   -1.0429   56.7552   -8.6874 C   0  0  0  0  0  0
   -0.9300   55.5389   -9.4841 N   0  0  0  0  0  0
    0.1742   55.1598  -10.1455 C   0  0  0  0  0  0
    1.1757   55.8548  -10.1592 O   0  0  0  0  0  0
    0.1220   53.7874  -10.8418 C   0  0  0  0  0  0
   -2.5195   57.1056   -8.5195 C   0  0  0  0  0  0
   -2.6772   58.2000   -7.6568 O   0  0  0  0  0  0
   -3.0815   57.5830   -9.8396 C   0  0  0  0  0  0
   -2.7696   58.4700  -10.0782 O   0  0  0  0  0  0
   -3.7675   56.7499  -10.6101 N   0  0  0  0  0  0
   -4.1985   57.2776  -11.9237 C   0  0  0  0  0  0
   -5.3113   58.3229  -11.7988 C   0  0  0  0  0  0
   -5.7790   58.7079  -13.1883 C   0  0  0  0  0  0
   -5.7281   60.0550  -13.6115 C   0  0  0  0  0  0
   -6.2982   57.7410  -14.0611 C   0  0  0  0  0  0
   -6.2237   60.4299  -14.8727 C   0  0  0  0  0  0
   -6.7907   58.1122  -15.3162 C   0  0  0  0  0  0
   -6.7686   59.4525  -15.7254 C   0  0  0  0  0  0
   -4.1691   55.4039  -10.2074 C   0  0  0  0  0  0
   -4.7568   55.3661   -8.7863 C   0  0  0  0  0  0
   -6.2434   55.7552   -8.6831 C   0  0  0  0  0  0
    1.0064   56.5503   -7.4019 N   0  0  0  0  0  0
   -3.3479   58.0009   -4.4940 H   0  0  0  0  0  0
   -1.7203   54.9545   -9.5407 H   0  0  0  0  0  0
    1.3967   55.7205   -6.9552 H   0  0  0  0  0  0
    1.3556   57.3855   -6.9318 H   0  0  0  0  0  0
  1  2  2  0  0  0
  1  3  1  0  0  0
  1  4  1  0  0  0
  3 29  1  0  0  0
  4  5  2  0  0  0
  4 13  1  0  0  0
  5  6  1  0  0  0
  6  7  1  0  0  0
  6 28  1  0  0  0
  7  8  1  0  0  0
  7 12  1  0  0  0
  8  9  1  0  0  0
  8 30  1  0  0  0
  9 10  2  0  0  0
  9 11  1  0  0  0
 12 13  1  0  0  0
 12 14  1  0  0  0
 14 15  2  0  0  0
 14 16  1  0  0  0
 16 17  1  0  0  0
 16 25  1  0  0  0
 17 18  1  0  0  0
 18 19  1  0  0  0
 19 20  2  0  0  0
 19 21  1  0  0  0
 20 22  1  0  0  0
 21 23  2  0  0  0
 22 24  2  0  0  0
 23 24  1  0  0  0
 25 26  1  0  0  0
 26 27  1  0  0  0
 28 31  1  0  0  0
 28 32  1  0  0  0
M  END
>  <CHROM.0>
73.75326124,-14.07123216,2.95162347,37.51170895,118.70553995,-174.24371227
133.30553746,98.92828644

>  <CHROM.1>
-178.88053896,102.71078797,107.33554480,-81.20803279,-72.80349644,-71.01537740
45.30876275,-174.66499780,-122.34341820,82.36441582,-3.06366497,57.45117749
-9.80883788,0.73559513,-0.66294141,1.17150924

>  <FORMUL>
      DPC    C20 H27 N3 O5

>  <HET>
 DPC  A 466      28

>  <HETNAM>
     DPC 5-ACETYLAMINO-4-AMINO-6-(PHENETHYL-PROPYL-CARBAMOYL)-5,
   2 DPC 6-DIHYDRO-4H-PYRAN-2-CARBOXYLIC ACID

>  <Name>
DPC.pdb

>  <RI>
0

>  <Rbt.Current_Directory>
/home/malgorzata/Desktop/rDOCK_IFD/Wyniki/11_neuraminidase

>  <Rbt.Executable>
rbdock ($Id: //depot/dev/client3/rdock/2013.1/src/exe/rbdock.cxx#4 $)

>  <Rbt.Library>
libRbt.so (2013.1, Build901 2013/11/27)

>  <Rbt.Parameter_File>
/home/malgorzata/Desktop/rDock_2013.1_src/data/scripts/soft_docking.prm

>  <Rbt.Receptor>
cavity.prm

>  <SCORE>
-55.0029

>  <SCORE.INTER>
-33.9911

>  <SCORE.INTER.CONST>
1

>  <SCORE.INTER.POLAR>
-5.26189

>  <SCORE.INTER.REPUL>
0.272857

>  <SCORE.INTER.ROT>
9

>  <SCORE.INTER.VDW>
-31.865

>  <SCORE.INTER.norm>
-1.21397

>  <SCORE.INTRA>
4.72482

>  <SCORE.INTRA.DIHEDRAL>
14.0333

>  <SCORE.INTRA.DIHEDRAL.0>
7.68839

>  <SCORE.INTRA.POLAR>
0

>  <SCORE.INTRA.POLAR.0>
0

>  <SCORE.INTRA.REPUL>
0

>  <SCORE.INTRA.REPUL.0>
0

>  <SCORE.INTRA.VDW>
1.91816

>  <SCORE.INTRA.VDW.0>
-2.73227

>  <SCORE.INTRA.norm>
0.168744

>  <SCORE.RESTR>
0.0246872

>  <SCORE.RESTR.CAVITY>
0.0246872

>  <SCORE.RESTR.norm>
0.000881685

>  <SCORE.SYSTEM>
-25.7613

>  <SCORE.SYSTEM.CONST>
0

>  <SCORE.SYSTEM.DIHEDRAL>
5.97928

>  <SCORE.SYSTEM.POLAR>
-6.5574

>  <SCORE.SYSTEM.VDW>
-6.45576

>  <SCORE.SYSTEM.norm>
-0.920046

>  <SCORE.heavy>
28

>  <SCORE.norm>
-1.96439

$$$$
