@<TRIPOS>MOLECULE
pose3.pdb
 55 56 0 0 0
SMALL
GASTEIGER

@<TRIPOS>ATOM
      1  C1        -2.3030   58.5250   -5.4960 C.2     1  LIG1        0.3716
      2  O1        -1.4420   58.6330   -4.6310 O.2     1  LIG1       -0.2417
      3  O2        -3.3290   59.1870   -5.4160 O.3     1  LIG1       -0.4750
      4  C2        -2.0260   57.6880   -6.6780 C.2     1  LIG1        0.2028
      5  C3        -0.9250   56.9330   -6.7430 C.2     1  LIG1       -0.0166
      6  C4        -0.6760   56.0390   -7.9280 C.3     1  LIG1        0.0499
      7  C5        -1.5590   56.4070   -9.1180 C.3     1  LIG1        0.0873
      8  N1        -1.6000   55.2860  -10.0500 N.am    1  LIG1       -0.3068
      9  C6        -1.1040   55.3120  -11.2970 C.2     1  LIG1        0.2103
     10  O3        -0.6090   56.3250  -11.7620 O.2     1  LIG1       -0.2761
     11  C7        -1.1520   53.9900  -12.0840 C.3     1  LIG1        0.0122
     12  C8        -2.9730   56.6930   -8.6190 C.3     1  LIG1        0.1957
     13  O4        -2.9620   57.6840   -7.6270 O.2     1  LIG1       -0.4708
     14  C9        -3.7960   57.2900   -9.7390 C.2     1  LIG1        0.2583
     15  O5        -3.2740   57.4450  -10.5420 O.2     1  LIG1       -0.2715
     16  N2        -5.1120   57.3880   -9.6170 N.am    1  LIG1       -0.2981
     17  C10       -5.8430   57.8990  -10.7980 C.3     1  LIG1        0.0188
     18  C11       -6.2930   59.3530  -10.6250 C.3     1  LIG1       -0.0118
     19  C12       -5.5200   60.2230  -11.5960 C.ar    1  LIG1       -0.0459
     20  C13       -5.2550   61.5760  -11.2880 C.ar    1  LIG1       -0.0585
     21  C14       -5.0870   59.7100  -12.8270 C.ar    1  LIG1       -0.0585
     22  C15       -4.5990   62.4080  -12.2130 C.ar    1  LIG1       -0.0615
     23  C16       -4.4340   60.5350  -13.7480 C.ar    1  LIG1       -0.0615
     24  C17       -4.1970   61.8850  -13.4560 C.ar    1  LIG1       -0.0617
     25  C18       -5.8460   57.0950   -8.3870 C.3     1  LIG1        0.0145
     26  C19       -5.5270   55.6970   -7.8320 C.3     1  LIG1       -0.0400
     27  C20       -6.7560   54.8230   -7.5170 C.3     1  LIG1       -0.0639
     28  N3         0.7110   56.1290   -8.3010 N.3     1  LIG1       -0.3224
     29  H1        -4.1260   58.8640   -5.7880 H       1  LIG1        0.2955
     30  H2        -2.0210   54.4520   -9.7430 H       1  LIG1        0.1492
     31  H3         1.2910   55.7730   -7.5410 H       1  LIG1        0.1188
     32  H4         0.9510   57.1040   -8.4840 H       1  LIG1        0.1188
     33 H          -0.2387   56.9633   -5.9729 H       1  LIG1        0.0627
     34 H          -0.9219   55.0362   -7.6472 H       1  LIG1        0.0523
     35 H          -1.1636   57.2715   -9.6092 H       1  LIG1        0.0558
     36 H          -1.6266   53.2378  -11.4891 H       1  LIG1        0.0322
     37 H          -0.1559   53.6804  -12.3223 H       1  LIG1        0.0322
     38 H          -1.7069   54.1328  -12.9877 H       1  LIG1        0.0322
     39 H          -3.3679   55.7677   -8.2547 H       1  LIG1        0.0851
     40 H          -6.7074   57.2888  -10.9570 H       1  LIG1        0.0468
     41 H          -5.1764   57.8621  -11.6342 H       1  LIG1        0.0468
     42 H          -6.0985   59.6727   -9.6226 H       1  LIG1        0.0328
     43 H          -7.3419   59.4343  -10.8201 H       1  LIG1        0.0328
     44 H          -5.5459   61.9580  -10.3745 H       1  LIG1        0.0620
     45 H          -5.2513   58.7170  -13.0548 H       1  LIG1        0.0620
     46 H          -4.4135   63.3964  -11.9814 H       1  LIG1        0.0618
     47 H          -4.1234   60.1458  -14.6519 H       1  LIG1        0.0618
     48 H          -3.7306   62.4918  -14.1483 H       1  LIG1        0.0618
     49 H          -6.8948   57.1525   -8.5909 H       1  LIG1        0.0464
     50 H          -5.5492   57.8132   -7.6514 H       1  LIG1        0.0464
     51 H          -4.9666   55.8189   -6.9287 H       1  LIG1        0.0278
     52 H          -4.9877   55.1864   -8.6023 H       1  LIG1        0.0278
     53 H          -7.3365   55.2879   -6.7477 H       1  LIG1        0.0230
     54 H          -6.4323   53.8584   -7.1859 H       1  LIG1        0.0230
     55 H          -7.3528   54.7158   -8.3986 H       1  LIG1        0.0230
@<TRIPOS>BOND
     1     1     2    2
     2     1     3    1
     3     1     4    1
     4     3    29    1
     5     4     5    2
     6     4    13    1
     7     5     6    1
     8     6     7    1
     9     6    28    1
    10     7     8    1
    11     7    12    1
    12     8     9   am
    13     8    30    1
    14     9    10    2
    15     9    11    1
    16    12    13    1
    17    12    14    1
    18    14    15    2
    19    14    16   am
    20    16    17    1
    21    16    25    1
    22    17    18    1
    23    18    19    1
    24    19    20   ar
    25    19    21   ar
    26    20    22   ar
    27    21    23   ar
    28    22    24   ar
    29    23    24   ar
    30    25    26    1
    31    26    27    1
    32    28    31    1
    33    28    32    1
    34     5    33    1
    35     6    34    1
    36     7    35    1
    37    11    36    1
    38    11    37    1
    39    11    38    1
    40    12    39    1
    41    17    40    1
    42    17    41    1
    43    18    42    1
    44    18    43    1
    45    20    44    1
    46    21    45    1
    47    22    46    1
    48    23    47    1
    49    24    48    1
    50    25    49    1
    51    25    50    1
    52    26    51    1
    53    26    52    1
    54    27    53    1
    55    27    54    1
    56    27    55    1
