@<TRIPOS>MOLECULE
pose7.pdb
 55 56 0 0 0
SMALL
GASTEIGER

@<TRIPOS>ATOM
      1  C1        -2.8810   54.0700   -9.2960 C.2     1  LIG1        0.3716
      2  O1        -3.9570   54.6350   -9.1410 O.2     1  LIG1       -0.2417
      3  O2        -2.8320   53.0180   -9.9200 O.3     1  LIG1       -0.4750
      4  C2        -1.6510   54.7370   -8.8300 C.2     1  LIG1        0.2028
      5  C3        -0.4500   54.3540   -9.2750 C.2     1  LIG1       -0.0166
      6  C4         0.7960   55.0760   -8.8390 C.3     1  LIG1        0.0499
      7  C5         0.5540   55.9440   -7.6070 C.3     1  LIG1        0.0873
      8  N1         1.6270   56.9240   -7.4910 N.am    1  LIG1       -0.3068
      9  C6         2.8360   56.6740   -6.9660 C.2     1  LIG1        0.2103
     10  O3         3.1100   55.5830   -6.4960 O.2     1  LIG1       -0.2761
     11  C7         3.8650   57.8170   -7.0330 C.3     1  LIG1        0.0122
     12  C8        -0.7760   56.6770   -7.7680 C.3     1  LIG1        0.1957
     13  O4        -1.8190   55.7710   -8.0060 O.2     1  LIG1       -0.4708
     14  C9        -1.1480   57.3460   -6.4640 C.2     1  LIG1        0.2583
     15  O5        -0.9340   56.8000   -5.6910 O.2     1  LIG1       -0.2715
     16  N2        -1.5460   58.6110   -6.4550 N.am    1  LIG1       -0.2981
     17  C10       -1.8000   59.2080   -5.1250 C.3     1  LIG1        0.0188
     18  C11       -0.5980   59.9990   -4.5990 C.3     1  LIG1       -0.0118
     19  C12       -0.7540   61.4520   -5.0010 C.ar    1  LIG1       -0.0459
     20  C13       -0.3110   61.8940   -6.2680 C.ar    1  LIG1       -0.0585
     21  C14       -1.3090   62.3830   -4.1120 C.ar    1  LIG1       -0.0585
     22  C15       -0.3890   63.2530   -6.6210 C.ar    1  LIG1       -0.0615
     23  C16       -1.3890   63.7350   -4.4630 C.ar    1  LIG1       -0.0615
     24  C17       -0.9220   64.1800   -5.7070 C.ar    1  LIG1       -0.0617
     25  C18       -1.8090   59.3950   -7.6600 C.3     1  LIG1        0.0145
     26  C19       -3.0820   58.9390   -8.3920 C.3     1  LIG1       -0.0400
     27  C20       -4.3580   58.9130   -7.5300 C.3     1  LIG1       -0.0639
     28  N3         1.8260   54.1100   -8.5630 N.3     1  LIG1       -0.3224
     29  H1        -3.6050   52.4990  -10.0230 H       1  LIG1        0.2955
     30  H2         1.4520   57.8350   -7.8210 H       1  LIG1        0.1492
     31  H3         2.4000   53.9770   -9.3960 H       1  LIG1        0.1188
     32  H4         1.3980   53.2230   -8.3000 H       1  LIG1        0.1188
     33 H          -0.3767   53.5551   -9.9241 H       1  LIG1        0.0627
     34 H           1.0988   55.7274   -9.6320 H       1  LIG1        0.0523
     35 H           0.5291   55.3302   -6.7309 H       1  LIG1        0.0558
     36 H           3.4133   58.6778   -7.4800 H       1  LIG1        0.0322
     37 H           4.7035   57.5080   -7.6216 H       1  LIG1        0.0322
     38 H           4.1935   58.0596   -6.0440 H       1  LIG1        0.0322
     39 H          -0.6555   57.3688   -8.5754 H       1  LIG1        0.0851
     40 H          -2.0237   58.4229   -4.4333 H       1  LIG1        0.0468
     41 H          -2.6194   59.8889   -5.2248 H       1  LIG1        0.0468
     42 H           0.3035   59.6046   -5.0193 H       1  LIG1        0.0328
     43 H          -0.5501   59.9204   -3.5330 H       1  LIG1        0.0328
     44 H           0.0736   61.2127   -6.9410 H       1  LIG1        0.0620
     45 H          -1.6604   62.0695   -3.1937 H       1  LIG1        0.0620
     46 H          -0.0570   63.5686   -7.5458 H       1  LIG1        0.0618
     47 H          -1.7962   64.4117   -3.7987 H       1  LIG1        0.0618
     48 H          -0.9688   65.1816   -5.9511 H       1  LIG1        0.0618
     49 H          -0.9762   59.2936   -8.3241 H       1  LIG1        0.0464
     50 H          -1.9520   60.4125   -7.3615 H       1  LIG1        0.0464
     51 H          -2.9137   57.9503   -8.7648 H       1  LIG1        0.0278
     52 H          -3.2575   59.6609   -9.1620 H       1  LIG1        0.0278
     53 H          -4.2391   58.2033   -6.7381 H       1  LIG1        0.0230
     54 H          -5.1932   58.6330   -8.1375 H       1  LIG1        0.0230
     55 H          -4.5283   59.8847   -7.1155 H       1  LIG1        0.0230
@<TRIPOS>BOND
     1     1     2    2
     2     1     3    1
     3     1     4    1
     4     3    29    1
     5     4     5    2
     6     4    13    1
     7     5     6    1
     8     6     7    1
     9     6    28    1
    10     7     8    1
    11     7    12    1
    12     8     9   am
    13     8    30    1
    14     9    10    2
    15     9    11    1
    16    12    13    1
    17    12    14    1
    18    14    15    2
    19    14    16   am
    20    16    17    1
    21    16    25    1
    22    17    18    1
    23    18    19    1
    24    19    20   ar
    25    19    21   ar
    26    20    22   ar
    27    21    23   ar
    28    22    24   ar
    29    23    24   ar
    30    25    26    1
    31    26    27    1
    32    28    31    1
    33    28    32    1
    34     5    33    1
    35     6    34    1
    36     7    35    1
    37    11    36    1
    38    11    37    1
    39    11    38    1
    40    12    39    1
    41    17    40    1
    42    17    41    1
    43    18    42    1
    44    18    43    1
    45    20    44    1
    46    21    45    1
    47    22    46    1
    48    23    47    1
    49    24    48    1
    50    25    49    1
    51    25    50    1
    52    26    51    1
    53    26    52    1
    54    27    53    1
    55    27    54    1
    56    27    55    1
