@<TRIPOS>MOLECULE
pose1.pdb
 55 56 0 0 0
SMALL
GASTEIGER

@<TRIPOS>ATOM
      1  C1        -2.8230   60.8200   -5.3550 C.2     1  LIG1        0.3716
      2  O1        -2.0000   61.4500   -4.7000 O.2     1  LIG1       -0.2417
      3  O2        -3.9790   61.2170   -5.4190 O.3     1  LIG1       -0.4750
      4  C2        -2.3680   59.6670   -6.1510 C.2     1  LIG1        0.2028
      5  C3        -1.2070   59.0590   -5.8820 C.2     1  LIG1       -0.0166
      6  C4        -0.7750   57.8480   -6.6630 C.3     1  LIG1        0.0499
      7  C5        -1.5680   57.6890   -7.9580 C.3     1  LIG1        0.0873
      8  N1        -1.4290   56.3200   -8.4410 N.am    1  LIG1       -0.3068
      9  C6        -0.9930   55.2900   -7.7010 C.2     1  LIG1        0.2103
     10  O3        -0.6300   55.4460   -6.5470 O.2     1  LIG1       -0.2761
     11  C7        -1.0200   53.9020   -8.3680 C.3     1  LIG1        0.0122
     12  C8        -3.0420   57.9710   -7.6770 C.3     1  LIG1        0.1957
     13  O4        -3.2050   59.2360   -7.0950 O.2     1  LIG1       -0.4708
     14  C9        -3.8000   58.0570   -8.9830 C.2     1  LIG1        0.2583
     15  O5        -3.4690   58.7640   -9.5600 O.2     1  LIG1       -0.2715
     16  N2        -4.6800   57.1190   -9.3040 N.am    1  LIG1       -0.2981
     17  C10       -5.3050   57.2360  -10.6400 C.3     1  LIG1        0.0188
     18  C11       -4.4200   56.6660  -11.7530 C.3     1  LIG1       -0.0118
     19  C12       -4.3460   55.1610  -11.5970 C.ar    1  LIG1       -0.0459
     20  C13       -5.2790   54.4800  -10.7830 C.ar    1  LIG1       -0.0585
     21  C14       -3.3330   54.4250  -12.2290 C.ar    1  LIG1       -0.0585
     22  C15       -5.1760   53.0930  -10.5790 C.ar    1  LIG1       -0.0615
     23  C16       -3.2290   53.0450  -12.0270 C.ar    1  LIG1       -0.0615
     24  C17       -4.1360   52.3740  -11.1970 C.ar    1  LIG1       -0.0617
     25  C18       -5.1040   56.0500   -8.4010 C.3     1  LIG1        0.0145
     26  C19       -6.5290   56.2670   -7.8630 C.3     1  LIG1       -0.0400
     27  C20       -7.2910   54.9800   -7.4940 C.3     1  LIG1       -0.0639
     28  N3         0.6290   57.9560   -6.9590 N.3     1  LIG1       -0.3224
     29  H1        -4.6000   60.9560   -4.7680 H       1  LIG1        0.2955
     30  H2        -1.6730   56.1390   -9.3780 H       1  LIG1        0.1492
     31  H3         0.7680   58.6450   -7.6980 H       1  LIG1        0.1188
     32  H4         0.9820   57.0500   -7.2680 H       1  LIG1        0.1188
     33 H          -0.6013   59.4247   -5.1307 H       1  LIG1        0.0627
     34 H          -0.9641   56.9808   -6.0654 H       1  LIG1        0.0523
     35 H          -1.1995   58.3719   -8.6947 H       1  LIG1        0.0558
     36 H          -1.3693   53.9969   -9.3749 H       1  LIG1        0.0322
     37 H          -1.6762   53.2567   -7.8222 H       1  LIG1        0.0322
     38 H          -0.0333   53.4881   -8.3703 H       1  LIG1        0.0322
     39 H          -3.3937   57.1883   -7.0378 H       1  LIG1        0.0851
     40 H          -5.4890   58.2702  -10.8435 H       1  LIG1        0.0468
     41 H          -6.2133   56.6707  -10.6249 H       1  LIG1        0.0468
     42 H          -3.4375   57.0836  -11.6804 H       1  LIG1        0.0328
     43 H          -4.8345   56.9120  -12.7083 H       1  LIG1        0.0328
     44 H          -6.0443   55.0066  -10.3334 H       1  LIG1        0.0620
     45 H          -2.6601   54.9048  -12.8470 H       1  LIG1        0.0620
     46 H          -5.8593   52.6046   -9.9793 H       1  LIG1        0.0618
     47 H          -2.4763   52.5157  -12.4943 H       1  LIG1        0.0618
     48 H          -4.0422   51.3584  -11.0396 H       1  LIG1        0.0618
     49 H          -4.4267   56.0104   -7.5736 H       1  LIG1        0.0464
     50 H          -5.1005   55.1346   -8.9550 H       1  LIG1        0.0464
     51 H          -7.0918   56.7819   -8.6133 H       1  LIG1        0.0278
     52 H          -6.4232   56.8217   -6.9542 H       1  LIG1        0.0278
     53 H          -7.4265   54.3819   -8.3708 H       1  LIG1        0.0230
     54 H          -8.2463   55.2358   -7.0856 H       1  LIG1        0.0230
     55 H          -6.7294   54.4284   -6.7693 H       1  LIG1        0.0230
@<TRIPOS>BOND
     1     1     2    2
     2     1     3    1
     3     1     4    1
     4     3    29    1
     5     4     5    2
     6     4    13    1
     7     5     6    1
     8     6     7    1
     9     6    28    1
    10     7     8    1
    11     7    12    1
    12     8     9   am
    13     8    30    1
    14     9    10    2
    15     9    11    1
    16    12    13    1
    17    12    14    1
    18    14    15    2
    19    14    16   am
    20    16    17    1
    21    16    25    1
    22    17    18    1
    23    18    19    1
    24    19    20   ar
    25    19    21   ar
    26    20    22   ar
    27    21    23   ar
    28    22    24   ar
    29    23    24   ar
    30    25    26    1
    31    26    27    1
    32    28    31    1
    33    28    32    1
    34     5    33    1
    35     6    34    1
    36     7    35    1
    37    11    36    1
    38    11    37    1
    39    11    38    1
    40    12    39    1
    41    17    40    1
    42    17    41    1
    43    18    42    1
    44    18    43    1
    45    20    44    1
    46    21    45    1
    47    22    46    1
    48    23    47    1
    49    24    48    1
    50    25    49    1
    51    25    50    1
    52    26    51    1
    53    26    52    1
    54    27    53    1
    55    27    54    1
    56    27    55    1
