@<TRIPOS>MOLECULE
pose4.pdb
 55 56 0 0 0
SMALL
GASTEIGER

@<TRIPOS>ATOM
      1  C1        -1.5280   61.0860   -5.7360 C.2     1  LIG1        0.3716
      2  O1        -2.2480   61.8850   -6.3220 O.2     1  LIG1       -0.2417
      3  O2        -0.8690   61.4550   -4.7730 O.3     1  LIG1       -0.4750
      4  C2        -1.5680   59.6660   -6.1310 C.2     1  LIG1        0.2028
      5  C3        -0.5620   58.8390   -5.8300 C.2     1  LIG1       -0.0166
      6  C4        -0.6350   57.3790   -6.1870 C.3     1  LIG1        0.0499
      7  C5        -1.7240   57.0960   -7.2190 C.3     1  LIG1        0.0873
      8  N1        -2.0410   55.6720   -7.2050 N.am    1  LIG1       -0.3068
      9  C6        -1.4070   54.7420   -7.9340 C.2     1  LIG1        0.2103
     10  O3        -0.5220   55.0430   -8.7170 O.2     1  LIG1       -0.2761
     11  C7        -1.8240   53.2790   -7.6950 C.3     1  LIG1        0.0122
     12  C8        -2.9760   57.8890   -6.8530 C.3     1  LIG1        0.1957
     13  O4        -2.6830   59.2560   -6.7360 O.2     1  LIG1       -0.4708
     14  C9        -3.9740   57.8140   -7.9860 C.2     1  LIG1        0.2583
     15  O5        -4.8800   57.6610   -7.6750 O.2     1  LIG1       -0.2715
     16  N2        -3.6010   58.1180   -9.2220 N.am    1  LIG1       -0.2981
     17  C10       -4.6660   58.1060  -10.2490 C.3     1  LIG1        0.0188
     18  C11       -4.2290   57.4030  -11.5380 C.3     1  LIG1       -0.0118
     19  C12       -5.3620   57.4750  -12.5430 C.ar    1  LIG1       -0.0459
     20  C13       -5.1280   57.1880  -13.9060 C.ar    1  LIG1       -0.0585
     21  C14       -6.6500   57.8580  -12.1410 C.ar    1  LIG1       -0.0585
     22  C15       -6.1580   57.3190  -14.8540 C.ar    1  LIG1       -0.0615
     23  C16       -7.6760   57.9880  -13.0830 C.ar    1  LIG1       -0.0615
     24  C17       -7.4370   57.7330  -14.4400 C.ar    1  LIG1       -0.0617
     25  C18       -2.2200   58.3830   -9.6190 C.3     1  LIG1        0.0145
     26  C19       -1.9630   59.8750   -9.8920 C.3     1  LIG1       -0.0400
     27  C20       -2.2890   60.3450  -11.3220 C.3     1  LIG1       -0.0639
     28  N3         0.6430   56.9550   -6.6940 N.3     1  LIG1       -0.3224
     29  H1        -0.4930   62.3140   -4.7640 H       1  LIG1        0.2955
     30  H2        -2.7730   55.3730   -6.6180 H       1  LIG1        0.1492
     31  H3         0.7520   57.2790   -7.6550 H       1  LIG1        0.1188
     32  H4         0.6970   55.9370   -6.6710 H       1  LIG1        0.1188
     33 H           0.2735   59.2056   -5.3477 H       1  LIG1        0.0627
     34 H          -0.8849   56.8310   -5.3026 H       1  LIG1        0.0523
     35 H          -1.3830   57.3813   -8.1923 H       1  LIG1        0.0558
     36 H          -2.6134   53.2465   -6.9734 H       1  LIG1        0.0322
     37 H          -0.9848   52.7239   -7.3309 H       1  LIG1        0.0322
     38 H          -2.1635   52.8501   -8.6146 H       1  LIG1        0.0322
     39 H          -3.3488   57.4794   -5.9375 H       1  LIG1        0.0851
     40 H          -4.9300   59.1165  -10.4816 H       1  LIG1        0.0468
     41 H          -5.4978   57.5647   -9.8490 H       1  LIG1        0.0468
     42 H          -3.9986   56.3793  -11.3288 H       1  LIG1        0.0328
     43 H          -3.3592   57.8824  -11.9362 H       1  LIG1        0.0328
     44 H          -4.1912   56.8789  -14.2092 H       1  LIG1        0.0620
     45 H          -6.8419   58.0450  -11.1444 H       1  LIG1        0.0620
     46 H          -5.9766   57.1124  -15.8487 H       1  LIG1        0.0618
     47 H          -8.6185   58.2746  -12.7754 H       1  LIG1        0.0618
     48 H          -8.1946   57.8482  -15.1313 H       1  LIG1        0.0618
     49 H          -2.0063   57.8292  -10.5093 H       1  LIG1        0.0464
     50 H          -1.5858   58.0859   -8.8100 H       1  LIG1        0.0464
     51 H          -0.9278   60.0720   -9.7066 H       1  LIG1        0.0278
     52 H          -2.6229   60.4136   -9.2444 H       1  LIG1        0.0278
     53 H          -1.6551   59.8362  -12.0179 H       1  LIG1        0.0230
     54 H          -2.1262   61.3999  -11.3965 H       1  LIG1        0.0230
     55 H          -3.3122   60.1254  -11.5451 H       1  LIG1        0.0230
@<TRIPOS>BOND
     1     1     2    2
     2     1     3    1
     3     1     4    1
     4     3    29    1
     5     4     5    2
     6     4    13    1
     7     5     6    1
     8     6     7    1
     9     6    28    1
    10     7     8    1
    11     7    12    1
    12     8     9   am
    13     8    30    1
    14     9    10    2
    15     9    11    1
    16    12    13    1
    17    12    14    1
    18    14    15    2
    19    14    16   am
    20    16    17    1
    21    16    25    1
    22    17    18    1
    23    18    19    1
    24    19    20   ar
    25    19    21   ar
    26    20    22   ar
    27    21    23   ar
    28    22    24   ar
    29    23    24   ar
    30    25    26    1
    31    26    27    1
    32    28    31    1
    33    28    32    1
    34     5    33    1
    35     6    34    1
    36     7    35    1
    37    11    36    1
    38    11    37    1
    39    11    38    1
    40    12    39    1
    41    17    40    1
    42    17    41    1
    43    18    42    1
    44    18    43    1
    45    20    44    1
    46    21    45    1
    47    22    46    1
    48    23    47    1
    49    24    48    1
    50    25    49    1
    51    25    50    1
    52    26    51    1
    53    26    52    1
    54    27    53    1
    55    27    54    1
    56    27    55    1
