@<TRIPOS>MOLECULE
pose5.pdb
 55 56 0 0 0
SMALL
GASTEIGER

@<TRIPOS>ATOM
      1  C1         3.0760   56.0790   -7.0800 C.2     1  LIG1        0.3716
      2  O1         3.0790   55.3650   -6.0840 O.2     1  LIG1       -0.2417
      3  O2         3.9070   55.8960   -7.9600 O.3     1  LIG1       -0.4750
      4  C2         1.9910   57.0620   -7.2490 C.2     1  LIG1        0.2028
      5  C3         2.2360   58.3750   -7.1850 C.2     1  LIG1       -0.0166
      6  C4         1.1350   59.3740   -7.4140 C.3     1  LIG1        0.0499
      7  C5        -0.2480   58.7350   -7.3140 C.3     1  LIG1        0.0873
      8  N1        -1.2280   59.6060   -7.9530 N.am    1  LIG1       -0.3068
      9  C6        -2.3280   60.0850   -7.3530 C.2     1  LIG1        0.2103
     10  O3        -2.6120   59.7770   -6.2080 O.2     1  LIG1       -0.2761
     11  C7        -3.1800   61.0750   -8.1680 C.3     1  LIG1        0.0122
     12  C8        -0.2290   57.3910   -8.0380 C.3     1  LIG1        0.1957
     13  O4         0.7870   56.5660   -7.5320 O.2     1  LIG1       -0.4708
     14  C9        -1.5060   56.6370   -7.7440 C.2     1  LIG1        0.2583
     15  O5        -2.1220   57.1480   -7.1960 O.2     1  LIG1       -0.2715
     16  N2        -1.7560   55.4880   -8.3570 N.am    1  LIG1       -0.2981
     17  C10       -3.0710   54.8690   -8.0770 C.3     1  LIG1        0.0188
     18  C11       -4.1860   55.4400   -8.9590 C.3     1  LIG1       -0.0118
     19  C12       -5.1500   54.3240   -9.3120 C.ar    1  LIG1       -0.0459
     20  C13       -6.5430   54.5130   -9.1740 C.ar    1  LIG1       -0.0585
     21  C14       -4.6730   53.0790   -9.7480 C.ar    1  LIG1       -0.0585
     22  C15       -7.4390   53.4610   -9.4330 C.ar    1  LIG1       -0.0615
     23  C16       -5.5630   52.0320  -10.0080 C.ar    1  LIG1       -0.0615
     24  C17       -6.9430   52.2090   -9.8420 C.ar    1  LIG1       -0.0617
     25  C18       -0.7970   54.7890   -9.2100 C.3     1  LIG1        0.0145
     26  C19       -0.4990   55.5550  -10.5100 C.3     1  LIG1       -0.0400
     27  C20       -1.7180   55.8020  -11.4180 C.3     1  LIG1       -0.0639
     28  N3         1.2550   60.4350   -6.4500 N.3     1  LIG1       -0.3224
     29  H1         4.0240   56.5360   -8.6350 H       1  LIG1        0.2955
     30  H2        -1.0710   59.8600   -8.8910 H       1  LIG1        0.1492
     31  H3         0.7830   61.2680   -6.8000 H       1  LIG1        0.1188
     32  H4         2.2410   60.6420   -6.2930 H       1  LIG1        0.1188
     33 H           3.1907   58.7065   -6.9762 H       1  LIG1        0.0627
     34 H           1.2362   59.7599   -8.4068 H       1  LIG1        0.0523
     35 H          -0.5071   58.5926   -6.2857 H       1  LIG1        0.0558
     36 H          -2.7506   61.1989   -9.1402 H       1  LIG1        0.0322
     37 H          -3.2062   62.0199   -7.6666 H       1  LIG1        0.0322
     38 H          -4.1754   60.6943   -8.2636 H       1  LIG1        0.0322
     39 H          -0.0945   57.5997   -9.0788 H       1  LIG1        0.0851
     40 H          -3.3212   55.0432   -7.0514 H       1  LIG1        0.0468
     41 H          -2.9908   53.8234   -8.2894 H       1  LIG1        0.0468
     42 H          -3.7637   55.8469   -9.8540 H       1  LIG1        0.0328
     43 H          -4.7039   56.2151   -8.4338 H       1  LIG1        0.0328
     44 H          -6.9068   55.4329   -8.8800 H       1  LIG1        0.0620
     45 H          -3.6594   52.9348   -9.8777 H       1  LIG1        0.0620
     46 H          -8.4549   53.6060   -9.3238 H       1  LIG1        0.0618
     47 H          -5.1996   51.1197  -10.3254 H       1  LIG1        0.0618
     48 H          -7.5918   51.4261  -10.0186 H       1  LIG1        0.0618
     49 H          -1.1970   53.8289   -9.4612 H       1  LIG1        0.0464
     50 H           0.1201   54.7023   -8.6657 H       1  LIG1        0.0464
     51 H           0.2211   54.9935  -11.0677 H       1  LIG1        0.0278
     52 H          -0.1490   56.5214  -10.2124 H       1  LIG1        0.0278
     53 H          -2.1127   54.8639  -11.7482 H       1  LIG1        0.0230
     54 H          -1.4193   56.3817  -12.2663 H       1  LIG1        0.0230
     55 H          -2.4691   56.3320  -10.8704 H       1  LIG1        0.0230
@<TRIPOS>BOND
     1     1     2    2
     2     1     3    1
     3     1     4    1
     4     3    29    1
     5     4     5    2
     6     4    13    1
     7     5     6    1
     8     6     7    1
     9     6    28    1
    10     7     8    1
    11     7    12    1
    12     8     9   am
    13     8    30    1
    14     9    10    2
    15     9    11    1
    16    12    13    1
    17    12    14    1
    18    14    15    2
    19    14    16   am
    20    16    17    1
    21    16    25    1
    22    17    18    1
    23    18    19    1
    24    19    20   ar
    25    19    21   ar
    26    20    22   ar
    27    21    23   ar
    28    22    24   ar
    29    23    24   ar
    30    25    26    1
    31    26    27    1
    32    28    31    1
    33    28    32    1
    34     5    33    1
    35     6    34    1
    36     7    35    1
    37    11    36    1
    38    11    37    1
    39    11    38    1
    40    12    39    1
    41    17    40    1
    42    17    41    1
    43    18    42    1
    44    18    43    1
    45    20    44    1
    46    21    45    1
    47    22    46    1
    48    23    47    1
    49    24    48    1
    50    25    49    1
    51    25    50    1
    52    26    51    1
    53    26    52    1
    54    27    53    1
    55    27    54    1
    56    27    55    1
