@<TRIPOS>MOLECULE
pose6.pdb
 55 56 0 0 0
SMALL
GASTEIGER

@<TRIPOS>ATOM
      1  C1        -6.0280   60.2110   -9.2280 C.2     1  LIG1        0.3716
      2  O1        -6.4030   60.8900  -10.1760 O.2     1  LIG1       -0.2417
      3  O2        -5.7800   60.7490   -8.1570 O.3     1  LIG1       -0.4750
      4  C2        -6.0050   58.7440   -9.3660 C.2     1  LIG1        0.2028
      5  C3        -6.8440   57.9730   -8.6660 C.2     1  LIG1       -0.0166
      6  C4        -6.8540   56.4800   -8.8540 C.3     1  LIG1        0.0499
      7  C5        -5.5990   55.9850   -9.5690 C.3     1  LIG1        0.0873
      8  N1        -5.8450   54.6500  -10.1020 N.am    1  LIG1       -0.3068
      9  C6        -6.2700   53.6050   -9.3750 C.2     1  LIG1        0.2103
     10  O3        -6.4420   53.6970   -8.1720 O.2     1  LIG1       -0.2761
     11  C7        -6.5710   52.3070  -10.1470 C.3     1  LIG1        0.0122
     12  C8        -5.2790   56.9310  -10.7240 C.3     1  LIG1        0.1957
     13  O4        -5.1560   58.2510  -10.2680 O.2     1  LIG1       -0.4708
     14  C9        -3.9150   56.5990  -11.2880 C.2     1  LIG1        0.2583
     15  O5        -3.2520   56.4530  -10.5960 O.2     1  LIG1       -0.2715
     16  N2        -3.7700   56.3720  -12.5870 N.am    1  LIG1       -0.2981
     17  C10       -2.4200   55.9650  -13.0330 C.3     1  LIG1        0.0188
     18  C11       -2.2060   54.4500  -12.9470 C.3     1  LIG1       -0.0118
     19  C12       -1.1760   54.1620  -11.8730 C.ar    1  LIG1       -0.0459
     20  C13       -1.5370   54.2010  -10.5070 C.ar    1  LIG1       -0.0585
     21  C14        0.1560   53.8860  -12.2150 C.ar    1  LIG1       -0.0585
     22  C15       -0.5720   54.0030   -9.5040 C.ar    1  LIG1       -0.0615
     23  C16        1.1160   53.6880  -11.2180 C.ar    1  LIG1       -0.0615
     24  C17        0.7650   53.7560   -9.8630 C.ar    1  LIG1       -0.0617
     25  C18       -4.8270   56.5700  -13.5760 C.3     1  LIG1        0.0145
     26  C19       -5.3210   58.0260  -13.6260 C.3     1  LIG1       -0.0400
     27  C20       -6.7420   58.2530  -13.0780 C.3     1  LIG1       -0.0639
     28  N3        -6.9670   55.8460   -7.5680 N.3     1  LIG1       -0.3224
     29  H1        -6.1650   61.5770   -7.9480 H       1  LIG1        0.2955
     30  H2        -5.6880   54.5050  -11.0630 H       1  LIG1        0.1492
     31  H3        -7.8760   56.0630   -7.1610 H       1  LIG1        0.1188
     32  H4        -6.2280   56.1890   -6.9540 H       1  LIG1        0.1188
     33 H          -7.4916   58.4066   -7.9895 H       1  LIG1        0.0627
     34 H          -7.6918   56.2263   -9.4693 H       1  LIG1        0.0523
     35 H          -4.7787   55.9552   -8.8826 H       1  LIG1        0.0558
     36 H          -6.3492   52.4492  -11.1840 H       1  LIG1        0.0322
     37 H          -7.6052   52.0568  -10.0345 H       1  LIG1        0.0322
     38 H          -5.9677   51.5131   -9.7588 H       1  LIG1        0.0322
     39 H          -6.0670   56.8274  -11.4404 H       1  LIG1        0.0851
     40 H          -1.6936   56.4499  -12.4148 H       1  LIG1        0.0468
     41 H          -2.3165   56.2504  -14.0590 H       1  LIG1        0.0468
     42 H          -1.8558   54.0823  -13.8888 H       1  LIG1        0.0328
     43 H          -3.1289   53.9658  -12.7046 H       1  LIG1        0.0328
     44 H          -2.5191   54.3766  -10.2432 H       1  LIG1        0.0620
     45 H           0.4291   53.8287  -13.2086 H       1  LIG1        0.0620
     46 H          -0.8435   54.0388   -8.5090 H       1  LIG1        0.0618
     47 H           2.0935   53.4897  -11.4828 H       1  LIG1        0.0618
     48 H           1.4831   53.6257   -9.1333 H       1  LIG1        0.0618
     49 H          -5.6523   55.9358  -13.3279 H       1  LIG1        0.0464
     50 H          -4.4223   56.3306  -14.5371 H       1  LIG1        0.0464
     51 H          -5.3042   58.3468  -14.6466 H       1  LIG1        0.0278
     52 H          -4.6646   58.5852  -12.9926 H       1  LIG1        0.0278
     53 H          -7.4456   57.7135  -13.6769 H       1  LIG1        0.0230
     54 H          -6.9737   59.2972  -13.1091 H       1  LIG1        0.0230
     55 H          -6.7941   57.9061  -12.0671 H       1  LIG1        0.0230
@<TRIPOS>BOND
     1     1     2    2
     2     1     3    1
     3     1     4    1
     4     3    29    1
     5     4     5    2
     6     4    13    1
     7     5     6    1
     8     6     7    1
     9     6    28    1
    10     7     8    1
    11     7    12    1
    12     8     9   am
    13     8    30    1
    14     9    10    2
    15     9    11    1
    16    12    13    1
    17    12    14    1
    18    14    15    2
    19    14    16   am
    20    16    17    1
    21    16    25    1
    22    17    18    1
    23    18    19    1
    24    19    20   ar
    25    19    21   ar
    26    20    22   ar
    27    21    23   ar
    28    22    24   ar
    29    23    24   ar
    30    25    26    1
    31    26    27    1
    32    28    31    1
    33    28    32    1
    34     5    33    1
    35     6    34    1
    36     7    35    1
    37    11    36    1
    38    11    37    1
    39    11    38    1
    40    12    39    1
    41    17    40    1
    42    17    41    1
    43    18    42    1
    44    18    43    1
    45    20    44    1
    46    21    45    1
    47    22    46    1
    48    23    47    1
    49    24    48    1
    50    25    49    1
    51    25    50    1
    52    26    51    1
    53    26    52    1
    54    27    53    1
    55    27    54    1
    56    27    55    1
