@<TRIPOS>MOLECULE
pose8.pdb
 55 56 0 0 0
SMALL
GASTEIGER

@<TRIPOS>ATOM
      1  C1        -8.0740   59.7220   -9.3070 C.2     1  LIG1        0.3716
      2  O1        -8.1950   60.8150   -8.7670 O.2     1  LIG1       -0.2417
      3  O2        -8.7680   59.4420  -10.2750 O.3     1  LIG1       -0.4750
      4  C2        -7.0040   58.8160   -8.8500 C.2     1  LIG1        0.2028
      5  C3        -7.1990   57.4950   -8.7920 C.2     1  LIG1       -0.0166
      6  C4        -6.0860   56.5710   -8.3780 C.3     1  LIG1        0.0499
      7  C5        -4.9470   57.3200   -7.6900 C.3     1  LIG1        0.0873
      8  N1        -3.7480   56.4890   -7.7040 N.am    1  LIG1       -0.3068
      9  C6        -3.4210   55.6380   -8.6890 C.2     1  LIG1        0.2103
     10  O3        -4.1540   55.4660   -9.6480 O.2     1  LIG1       -0.2761
     11  C7        -2.0590   54.9320   -8.5630 C.3     1  LIG1        0.0122
     12  C8        -4.6670   58.6120   -8.4540 C.3     1  LIG1        0.1957
     13  O4        -5.8320   59.3850   -8.5690 O.2     1  LIG1       -0.4708
     14  C9        -3.7180   59.4780   -7.6570 C.2     1  LIG1        0.2583
     15  O5        -4.0690   59.7080   -6.7820 O.2     1  LIG1       -0.2715
     16  N2        -2.4880   59.6980   -8.1000 N.am    1  LIG1       -0.2981
     17  C10       -1.6010   60.4790   -7.2100 C.3     1  LIG1        0.0188
     18  C11       -0.7130   59.5870   -6.3380 C.3     1  LIG1       -0.0118
     19  C12        0.6050   60.2950   -6.0960 C.ar    1  LIG1       -0.0459
     20  C13        1.6740   60.1490   -7.0080 C.ar    1  LIG1       -0.0585
     21  C14        0.7950   61.0790   -4.9480 C.ar    1  LIG1       -0.0585
     22  C15        2.9210   60.7470   -6.7560 C.ar    1  LIG1       -0.0615
     23  C16        2.0340   61.6760   -4.6960 C.ar    1  LIG1       -0.0615
     24  C17        3.1040   61.5070   -5.5850 C.ar    1  LIG1       -0.0617
     25  C18       -2.0040   59.2830   -9.4150 C.3     1  LIG1        0.0145
     26  C19       -0.8760   58.2410   -9.3250 C.3     1  LIG1       -0.0400
     27  C20       -0.3270   57.7530  -10.6780 C.3     1  LIG1       -0.0639
     28  N3        -6.6140   55.5650   -7.4950 N.3     1  LIG1       -0.3224
     29  H1        -8.4580   58.8290  -10.9120 H       1  LIG1        0.2955
     30  H2        -3.1360   56.5580   -6.9360 H       1  LIG1        0.1492
     31  H3        -6.5770   54.6560   -7.9560 H       1  LIG1        0.1188
     32  H4        -7.5820   55.7900   -7.2640 H       1  LIG1        0.1188
     33 H          -8.1231   57.1045   -9.0338 H       1  LIG1        0.0627
     34 H          -5.6830   56.1180   -9.2596 H       1  LIG1        0.0523
     35 H          -5.2197   57.5450   -6.6801 H       1  LIG1        0.0558
     36 H          -1.5876   55.2269   -7.6488 H       1  LIG1        0.0322
     37 H          -1.4373   55.2063   -9.3895 H       1  LIG1        0.0322
     38 H          -2.2053   53.8721   -8.5631 H       1  LIG1        0.0322
     39 H          -4.2766   58.3313   -9.4099 H       1  LIG1        0.0851
     40 H          -2.2058   61.0894   -6.5724 H       1  LIG1        0.0468
     41 H          -0.9595   61.0713   -7.8285 H       1  LIG1        0.0468
     42 H          -0.5353   58.6579   -6.8382 H       1  LIG1        0.0328
     43 H          -1.1982   59.3939   -5.4041 H       1  LIG1        0.0328
     44 H           1.5379   59.5969   -7.8692 H       1  LIG1        0.0620
     45 H           0.0156   61.2158   -4.2856 H       1  LIG1        0.0620
     46 H           3.6977   60.6296   -7.4253 H       1  LIG1        0.0618
     47 H           2.1619   62.2473   -3.8461 H       1  LIG1        0.0618
     48 H           4.0202   61.9368   -5.3827 H       1  LIG1        0.0618
     49 H          -1.6355   60.1440   -9.9325 H       1  LIG1        0.0464
     50 H          -2.8228   58.8320   -9.9356 H       1  LIG1        0.0464
     51 H          -1.2514   57.3914   -8.7939 H       1  LIG1        0.0278
     52 H          -0.0608   58.7269   -8.8309 H       1  LIG1        0.0278
     53 H          -1.1042   57.2556  -11.2198 H       1  LIG1        0.0230
     54 H           0.4822   57.0733  -10.5103 H       1  LIG1        0.0230
     55 H           0.0225   58.5909  -11.2442 H       1  LIG1        0.0230
@<TRIPOS>BOND
     1     1     2    2
     2     1     3    1
     3     1     4    1
     4     3    29    1
     5     4     5    2
     6     4    13    1
     7     5     6    1
     8     6     7    1
     9     6    28    1
    10     7     8    1
    11     7    12    1
    12     8     9   am
    13     8    30    1
    14     9    10    2
    15     9    11    1
    16    12    13    1
    17    12    14    1
    18    14    15    2
    19    14    16   am
    20    16    17    1
    21    16    25    1
    22    17    18    1
    23    18    19    1
    24    19    20   ar
    25    19    21   ar
    26    20    22   ar
    27    21    23   ar
    28    22    24   ar
    29    23    24   ar
    30    25    26    1
    31    26    27    1
    32    28    31    1
    33    28    32    1
    34     5    33    1
    35     6    34    1
    36     7    35    1
    37    11    36    1
    38    11    37    1
    39    11    38    1
    40    12    39    1
    41    17    40    1
    42    17    41    1
    43    18    42    1
    44    18    43    1
    45    20    44    1
    46    21    45    1
    47    22    46    1
    48    23    47    1
    49    24    48    1
    50    25    49    1
    51    25    50    1
    52    26    51    1
    53    26    52    1
    54    27    53    1
    55    27    54    1
    56    27    55    1
