@<TRIPOS>MOLECULE
pose0.pdb
 55 56 0 0 0
SMALL
GASTEIGER

@<TRIPOS>ATOM
      1  C1         2.6030   56.9960   -7.1460 C.2     1  LIG1        0.3716
      2  O1         3.6340   56.5260   -6.6790 O.2     1  LIG1       -0.2417
      3  O2         2.2600   58.1290   -6.8390 O.3     1  LIG1       -0.4750
      4  C2         1.8670   56.2260   -8.1650 C.2     1  LIG1        0.2028
      5  C3         2.2370   54.9820   -8.4880 C.2     1  LIG1       -0.0166
      6  C4         1.4470   54.1820   -9.4890 C.3     1  LIG1        0.0499
      7  C5         0.5120   55.0610  -10.3150 C.3     1  LIG1        0.0873
      8  N1        -0.5090   54.2250  -10.9360 N.am    1  LIG1       -0.3068
      9  C6        -0.4880   53.8170  -12.2140 C.2     1  LIG1        0.2103
     10  O3         0.3960   54.1670  -12.9770 O.2     1  LIG1       -0.2761
     11  C7        -1.6070   52.8520  -12.6460 C.3     1  LIG1        0.0122
     12  C8        -0.1640   56.0730   -9.3930 C.3     1  LIG1        0.1957
     13  O4         0.7900   56.8160   -8.6830 O.2     1  LIG1       -0.4708
     14  C9        -0.9010   57.1010  -10.2220 C.2     1  LIG1        0.2583
     15  O5        -0.4890   57.2470  -11.0880 O.2     1  LIG1       -0.2715
     16  N2        -2.0740   57.5670   -9.8130 N.am    1  LIG1       -0.2981
     17  C10       -2.7640   58.4990  -10.7320 C.3     1  LIG1        0.0188
     18  C11       -2.8410   57.9600  -12.1650 C.3     1  LIG1       -0.0118
     19  C12       -4.2610   58.1160  -12.6710 C.ar    1  LIG1       -0.0459
     20  C13       -5.3550   57.7640  -11.8490 C.ar    1  LIG1       -0.0585
     21  C14       -4.5100   58.5800  -13.9700 C.ar    1  LIG1       -0.0585
     22  C15       -6.6710   57.8400  -12.3350 C.ar    1  LIG1       -0.0615
     23  C16       -5.8190   58.6580  -14.4560 C.ar    1  LIG1       -0.0615
     24  C17       -6.9030   58.2800  -13.6520 C.ar    1  LIG1       -0.0617
     25  C18       -2.6630   57.2730   -8.5090 C.3     1  LIG1        0.0145
     26  C19       -3.2170   55.8400   -8.4250 C.3     1  LIG1       -0.0400
     27  C20       -4.4990   55.5850   -9.2390 C.3     1  LIG1       -0.0639
     28  N3         2.3590   53.4860  -10.3570 N.3     1  LIG1       -0.3224
     29  H1         1.4430   58.4710   -7.1460 H       1  LIG1        0.2955
     30  H2        -1.2680   53.9410  -10.3770 H       1  LIG1        0.1492
     31  H3         2.0310   53.5540  -11.3200 H       1  LIG1        0.1188
     32  H4         2.4060   52.5040  -10.0830 H       1  LIG1        0.1188
     33 H           3.0722   54.5665   -8.0467 H       1  LIG1        0.0627
     34 H           0.8369   53.4853   -8.9531 H       1  LIG1        0.0523
     35 H           1.0696   55.5725  -11.0715 H       1  LIG1        0.0558
     36 H          -2.2698   52.6832  -11.8231 H       1  LIG1        0.0322
     37 H          -1.1768   51.9220  -12.9540 H       1  LIG1        0.0322
     38 H          -2.1522   53.2801  -13.4611 H       1  LIG1        0.0322
     39 H          -0.8068   55.5202   -8.7402 H       1  LIG1        0.0851
     40 H          -2.2320   59.4273  -10.7426 H       1  LIG1        0.0468
     41 H          -3.7657   58.6239  -10.3771 H       1  LIG1        0.0468
     42 H          -2.5674   56.9256  -12.1751 H       1  LIG1        0.0328
     43 H          -2.1692   58.5052  -12.7946 H       1  LIG1        0.0328
     44 H          -5.1856   57.4477  -10.8814 H       1  LIG1        0.0620
     45 H          -3.7220   58.8660  -14.5719 H       1  LIG1        0.0620
     46 H          -7.4636   57.5746  -11.7296 H       1  LIG1        0.0618
     47 H          -5.9884   58.9971  -15.4158 H       1  LIG1        0.0618
     48 H          -7.8650   58.3239  -14.0230 H       1  LIG1        0.0618
     49 H          -3.4623   57.9614   -8.3300 H       1  LIG1        0.0464
     50 H          -1.8915   57.3680   -7.7737 H       1  LIG1        0.0464
     51 H          -3.4287   55.6264   -7.3981 H       1  LIG1        0.0278
     52 H          -2.4658   55.2056   -8.8469 H       1  LIG1        0.0278
     53 H          -5.2903   56.1970   -8.8592 H       1  LIG1        0.0230
     54 H          -4.7744   54.5543   -9.1570 H       1  LIG1        0.0230
     55 H          -4.3231   55.8265  -10.2664 H       1  LIG1        0.0230
@<TRIPOS>BOND
     1     1     2    2
     2     1     3    1
     3     1     4    1
     4     3    29    1
     5     4     5    2
     6     4    13    1
     7     5     6    1
     8     6     7    1
     9     6    28    1
    10     7     8    1
    11     7    12    1
    12     8     9   am
    13     8    30    1
    14     9    10    2
    15     9    11    1
    16    12    13    1
    17    12    14    1
    18    14    15    2
    19    14    16   am
    20    16    17    1
    21    16    25    1
    22    17    18    1
    23    18    19    1
    24    19    20   ar
    25    19    21   ar
    26    20    22   ar
    27    21    23   ar
    28    22    24   ar
    29    23    24   ar
    30    25    26    1
    31    26    27    1
    32    28    31    1
    33    28    32    1
    34     5    33    1
    35     6    34    1
    36     7    35    1
    37    11    36    1
    38    11    37    1
    39    11    38    1
    40    12    39    1
    41    17    40    1
    42    17    41    1
    43    18    42    1
    44    18    43    1
    45    20    44    1
    46    21    45    1
    47    22    46    1
    48    23    47    1
    49    24    48    1
    50    25    49    1
    51    25    50    1
    52    26    51    1
    53    26    52    1
    54    27    53    1
    55    27    54    1
    56    27    55    1
