@<TRIPOS>MOLECULE
pose2.pdb
 55 56 0 0 0
SMALL
GASTEIGER

@<TRIPOS>ATOM
      1  C1        -2.0620   58.0810   -5.6210 C.2     1  LIG1        0.3716
      2  O1        -2.9710   58.8840   -5.4400 O.2     1  LIG1       -0.2417
      3  O2        -1.2000   57.9380   -4.7640 O.3     1  LIG1       -0.4750
      4  C2        -2.1010   57.2180   -6.8140 C.2     1  LIG1        0.2028
      5  C3        -1.1740   56.2750   -7.0120 C.2     1  LIG1       -0.0166
      6  C4        -1.2510   55.3590   -8.2040 C.3     1  LIG1        0.0499
      7  C5        -2.2020   55.8910   -9.2730 C.3     1  LIG1        0.0873
      8  N1        -2.5700   54.8030  -10.1730 N.am    1  LIG1       -0.3068
      9  C6        -2.4730   54.8540  -11.5100 C.2     1  LIG1        0.2103
     10  O3        -2.1010   55.8650  -12.0820 O.2     1  LIG1       -0.2761
     11  C7        -2.8120   53.5610  -12.2740 C.3     1  LIG1        0.0122
     12  C8        -3.4620   56.4260   -8.5970 C.3     1  LIG1        0.1957
     13  O4        -3.1390   57.3910   -7.6320 O.2     1  LIG1       -0.4708
     14  C9        -4.3030   57.1720   -9.6080 C.2     1  LIG1        0.2583
     15  O5        -3.7860   57.4770  -10.3700 O.2     1  LIG1       -0.2715
     16  N2        -5.6230   57.2000   -9.4830 N.am    1  LIG1       -0.2981
     17  C10       -6.3690   57.8740  -10.5690 C.3     1  LIG1        0.0188
     18  C11       -6.8440   56.8960  -11.6490 C.3     1  LIG1       -0.0118
     19  C12       -7.0360   57.6560  -12.9460 C.ar    1  LIG1       -0.0459
     20  C13       -6.1310   58.6740  -13.3190 C.ar    1  LIG1       -0.0585
     21  C14       -8.1310   57.3820  -13.7790 C.ar    1  LIG1       -0.0585
     22  C15       -6.3400   59.4290  -14.4860 C.ar    1  LIG1       -0.0615
     23  C16       -8.3400   58.1320  -14.9410 C.ar    1  LIG1       -0.0615
     24  C17       -7.4590   59.1620  -15.2960 C.ar    1  LIG1       -0.0617
     25  C18       -6.3480   56.6800   -8.3260 C.3     1  LIG1        0.0145
     26  C19       -6.0060   55.2100   -8.0300 C.3     1  LIG1       -0.0400
     27  C20       -5.5620   54.3830   -9.2510 C.3     1  LIG1       -0.0639
     28  N3         0.0670   55.1980   -8.7580 N.3     1  LIG1       -0.3224
     29  H1        -0.7800   57.1080   -4.6570 H       1  LIG1        0.2955
     30  H2        -2.9120   53.9730   -9.7700 H       1  LIG1        0.1492
     31  H3         0.5480   54.4390   -8.2750 H       1  LIG1        0.1188
     32  H4         0.5940   56.0630   -8.6400 H       1  LIG1        0.1188
     33 H          -0.3971   56.1740   -6.3402 H       1  LIG1        0.0627
     34 H          -1.6353   54.4156   -7.8764 H       1  LIG1        0.0523
     35 H          -1.7243   56.6726   -9.8261 H       1  LIG1        0.0558
     36 H          -3.1145   52.8053  -11.5795 H       1  LIG1        0.0322
     37 H          -1.9487   53.2272  -12.8108 H       1  LIG1        0.0322
     38 H          -3.6084   53.7520  -12.9626 H       1  LIG1        0.0322
     39 H          -3.9671   55.5855   -8.1688 H       1  LIG1        0.0851
     40 H          -5.7306   58.6029  -11.0229 H       1  LIG1        0.0468
     41 H          -7.2364   58.3264  -10.1356 H       1  LIG1        0.0468
     42 H          -7.7715   56.4536  -11.3507 H       1  LIG1        0.0328
     43 H          -6.1166   56.1231  -11.7848 H       1  LIG1        0.0328
     44 H          -5.3069   58.8657  -12.7281 H       1  LIG1        0.0620
     45 H          -8.7857   56.6231  -13.5332 H       1  LIG1        0.0620
     46 H          -5.6764   60.1750  -14.7472 H       1  LIG1        0.0618
     47 H          -9.1519   57.9245  -15.5434 H       1  LIG1        0.0618
     48 H          -7.6298   59.7213  -16.1463 H       1  LIG1        0.0618
     49 H          -7.3982   56.7566   -8.5161 H       1  LIG1        0.0464
     50 H          -6.0597   57.2593   -7.4738 H       1  LIG1        0.0464
     51 H          -6.8750   54.7451   -7.6132 H       1  LIG1        0.0278
     52 H          -5.1699   55.2276   -7.3625 H       1  LIG1        0.0278
     53 H          -6.3640   54.3311   -9.9574 H       1  LIG1        0.0230
     54 H          -5.2996   53.3946   -8.9360 H       1  LIG1        0.0230
     55 H          -4.7139   54.8487   -9.7079 H       1  LIG1        0.0230
@<TRIPOS>BOND
     1     1     2    2
     2     1     3    1
     3     1     4    1
     4     3    29    1
     5     4     5    2
     6     4    13    1
     7     5     6    1
     8     6     7    1
     9     6    28    1
    10     7     8    1
    11     7    12    1
    12     8     9   am
    13     8    30    1
    14     9    10    2
    15     9    11    1
    16    12    13    1
    17    12    14    1
    18    14    15    2
    19    14    16   am
    20    16    17    1
    21    16    25    1
    22    17    18    1
    23    18    19    1
    24    19    20   ar
    25    19    21   ar
    26    20    22   ar
    27    21    23   ar
    28    22    24   ar
    29    23    24   ar
    30    25    26    1
    31    26    27    1
    32    28    31    1
    33    28    32    1
    34     5    33    1
    35     6    34    1
    36     7    35    1
    37    11    36    1
    38    11    37    1
    39    11    38    1
    40    12    39    1
    41    17    40    1
    42    17    41    1
    43    18    42    1
    44    18    43    1
    45    20    44    1
    46    21    45    1
    47    22    46    1
    48    23    47    1
    49    24    48    1
    50    25    49    1
    51    25    50    1
    52    26    51    1
    53    26    52    1
    54    27    53    1
    55    27    54    1
    56    27    55    1
