@<TRIPOS>MOLECULE
pose9.pdb
 55 56 0 0 0
SMALL
GASTEIGER

@<TRIPOS>ATOM
      1  C1        -2.4350   59.2650   -5.5380 C.2     1  LIG1        0.3716
      2  O1        -2.1820   60.4550   -5.6880 O.2     1  LIG1       -0.2417
      3  O2        -3.1650   58.9110   -4.6220 O.3     1  LIG1       -0.4750
      4  C2        -1.9520   58.3020   -6.5430 C.2     1  LIG1        0.2028
      5  C3        -0.8830   57.5350   -6.3030 C.2     1  LIG1       -0.0166
      6  C4        -0.4290   56.5140   -7.3110 C.3     1  LIG1        0.0499
      7  C5        -1.0430   56.7550   -8.6870 C.3     1  LIG1        0.0873
      8  N1        -0.9300   55.5390   -9.4840 N.am    1  LIG1       -0.3068
      9  C6         0.1740   55.1600  -10.1460 C.2     1  LIG1        0.2103
     10  O3         1.1760   55.8550  -10.1590 O.2     1  LIG1       -0.2761
     11  C7         0.1220   53.7870  -10.8420 C.3     1  LIG1        0.0122
     12  C8        -2.5190   57.1060   -8.5200 C.3     1  LIG1        0.1957
     13  O4        -2.6770   58.2000   -7.6570 O.2     1  LIG1       -0.4708
     14  C9        -3.0820   57.5830   -9.8400 C.2     1  LIG1        0.2583
     15  O5        -2.7700   58.4700  -10.0780 O.2     1  LIG1       -0.2715
     16  N2        -3.7680   56.7500  -10.6100 N.am    1  LIG1       -0.2981
     17  C10       -4.1990   57.2780  -11.9240 C.3     1  LIG1        0.0188
     18  C11       -5.3110   58.3230  -11.7990 C.3     1  LIG1       -0.0118
     19  C12       -5.7790   58.7080  -13.1880 C.ar    1  LIG1       -0.0459
     20  C13       -5.7280   60.0550  -13.6110 C.ar    1  LIG1       -0.0585
     21  C14       -6.2980   57.7410  -14.0610 C.ar    1  LIG1       -0.0585
     22  C15       -6.2240   60.4300  -14.8730 C.ar    1  LIG1       -0.0615
     23  C16       -6.7910   58.1120  -15.3160 C.ar    1  LIG1       -0.0615
     24  C17       -6.7690   59.4530  -15.7250 C.ar    1  LIG1       -0.0617
     25  C18       -4.1690   55.4040  -10.2070 C.3     1  LIG1        0.0145
     26  C19       -4.7570   55.3660   -8.7860 C.3     1  LIG1       -0.0400
     27  C20       -6.2430   55.7550   -8.6830 C.3     1  LIG1       -0.0639
     28  N3         1.0060   56.5500   -7.4020 N.3     1  LIG1       -0.3224
     29  H1        -3.3480   58.0010   -4.4940 H       1  LIG1        0.2955
     30  H2        -1.7200   54.9550   -9.5410 H       1  LIG1        0.1492
     31  H3         1.3970   55.7210   -6.9550 H       1  LIG1        0.1188
     32  H4         1.3560   57.3860   -6.9320 H       1  LIG1        0.1188
     33 H          -0.3642   57.6444   -5.4176 H       1  LIG1        0.0627
     34 H          -0.7574   55.5506   -6.9809 H       1  LIG1        0.0523
     35 H          -0.5303   57.5568   -9.1760 H       1  LIG1        0.0558
     36 H          -0.8468   53.3541  -10.7048 H       1  LIG1        0.0322
     37 H           0.8637   53.1434  -10.4170 H       1  LIG1        0.0322
     38 H           0.3131   53.9097  -11.8876 H       1  LIG1        0.0322
     39 H          -3.0072   56.2294   -8.1484 H       1  LIG1        0.0851
     40 H          -4.5575   56.4648  -12.5199 H       1  LIG1        0.0468
     41 H          -3.3543   57.7542  -12.3763 H       1  LIG1        0.0468
     42 H          -4.9360   59.1882  -11.2934 H       1  LIG1        0.0328
     43 H          -6.1284   57.9184  -11.2395 H       1  LIG1        0.0328
     44 H          -5.3228   60.7711  -12.9880 H       1  LIG1        0.0620
     45 H          -6.3162   56.7494  -13.7755 H       1  LIG1        0.0620
     46 H          -6.1881   61.4171  -15.1720 H       1  LIG1        0.0618
     47 H          -7.1748   57.3916  -15.9474 H       1  LIG1        0.0618
     48 H          -7.1504   59.7213  -16.6456 H       1  LIG1        0.0618
     49 H          -3.3109   54.7657  -10.2406 H       1  LIG1        0.0464
     50 H          -4.9303   55.0751  -10.8831 H       1  LIG1        0.0464
     51 H          -4.1945   56.0419   -8.1764 H       1  LIG1        0.0278
     52 H          -4.6928   54.3475   -8.4643 H       1  LIG1        0.0278
     53 H          -6.3681   56.7710   -8.9944 H       1  LIG1        0.0230
     54 H          -6.5698   55.6498   -7.6696 H       1  LIG1        0.0230
     55 H          -6.8239   55.1146   -9.3134 H       1  LIG1        0.0230
@<TRIPOS>BOND
     1     1     2    2
     2     1     3    1
     3     1     4    1
     4     3    29    1
     5     4     5    2
     6     4    13    1
     7     5     6    1
     8     6     7    1
     9     6    28    1
    10     7     8    1
    11     7    12    1
    12     8     9   am
    13     8    30    1
    14     9    10    2
    15     9    11    1
    16    12    13    1
    17    12    14    1
    18    14    15    2
    19    14    16   am
    20    16    17    1
    21    16    25    1
    22    17    18    1
    23    18    19    1
    24    19    20   ar
    25    19    21   ar
    26    20    22   ar
    27    21    23   ar
    28    22    24   ar
    29    23    24   ar
    30    25    26    1
    31    26    27    1
    32    28    31    1
    33    28    32    1
    34     5    33    1
    35     6    34    1
    36     7    35    1
    37    11    36    1
    38    11    37    1
    39    11    38    1
    40    12    39    1
    41    17    40    1
    42    17    41    1
    43    18    42    1
    44    18    43    1
    45    20    44    1
    46    21    45    1
    47    22    46    1
    48    23    47    1
    49    24    48    1
    50    25    49    1
    51    25    50    1
    52    26    51    1
    53    26    52    1
    54    27    53    1
    55    27    54    1
    56    27    55    1
