FXV.pdb
  rDOCK(R)          3D
libRbt.so/2013.1/901 2013/11/27
 38 40  0  0  0  0  0  0  0  0999 V2000
    3.2769   12.7606   25.5783 C   0  0  0  0  0  0
    3.6552   11.6498   24.7535 C   0  0  0  0  0  0
    3.5420   11.8015   23.3237 C   0  0  0  0  0  0
    3.0620   13.0312   22.7643 C   0  0  0  0  0  0
    2.7017   14.0871   23.5647 N   0  0  0  0  0  0
    2.8084   13.9510   24.9465 C   0  0  0  0  0  0
    6.0726    9.0044   26.2587 C   0  0  0  0  0  0
    5.1511    7.9218   26.5959 C   0  0  0  0  0  0
    3.7522    8.1059   26.3012 C   0  0  0  0  0  0
    3.2699    9.3067   25.6996 C   0  0  0  0  0  0
    4.1622   10.3797   25.3671 C   0  0  0  0  0  0
    5.5593   10.2016   25.6561 C   0  0  0  0  0  0
    5.5624    6.6734   27.2287 C   0  0  0  0  0  0
    6.8899    6.5546   27.4253 N   0  0  0  0  0  0
    7.4934    5.4181   28.0740 C   0  0  0  0  0  0
    8.2896    5.9429   29.2886 C   0  0  0  0  0  0
    8.3605    4.6443   27.0119 C   0  0  0  0  0  0
    8.2909    5.3745   25.6578 C   0  0  0  0  0  0
    9.4399    6.0549   25.3973 O   0  0  0  0  0  0
    7.9622    3.1073   26.8541 C   0  0  0  0  0  0
    5.3667    3.2134   26.4069 C   0  0  0  0  0  0
    4.2065    2.9091   25.5711 C   0  0  0  0  0  0
    4.4186    2.1932   24.3243 C   0  0  0  0  0  0
    5.7350    1.7982   23.9241 C   0  0  0  0  0  0
    6.8708    2.1026   24.7559 C   0  0  0  0  0  0
    6.7161    2.8127   26.0042 C   0  0  0  0  0  0
    2.8545    3.3082   25.9693 C   0  0  0  0  0  0
    2.6434    4.1872   26.9533 N   0  0  0  0  0  0
    1.7988    2.7806   25.3243 N   0  0  0  0  0  0
    7.3473    5.3515   24.9462 O   0  0  0  0  0  0
    4.7512    5.7957   27.5794 O   0  0  0  0  0  0
    9.6407    6.7788   24.1808 C   0  0  0  0  0  0
    2.2445   15.2564   23.0350 O   0  0  0  0  0  0
    7.4766    7.2799   27.1104 H   0  0  0  0  0  0
    3.4071    4.5811   27.4336 H   0  0  0  0  0  0
    1.9400    2.1318   24.5974 H   0  0  0  0  0  0
    0.8847    3.0431   25.5791 H   0  0  0  0  0  0
    2.1837   15.1724   22.0705 H   0  0  0  0  0  0
  1  2  1  0  0  0
  1  6  2  0  0  0
  2  3  1  0  0  0
  2 11  1  0  0  0
  3  4  2  0  0  0
  4  5  1  0  0  0
  5  6  1  0  0  0
  5 33  1  0  0  0
  7  8  2  0  0  0
  7 12  1  0  0  0
  8  9  1  0  0  0
  8 13  1  0  0  0
  9 10  2  0  0  0
 10 11  1  0  0  0
 11 12  2  0  0  0
 13 14  1  0  0  0
 13 31  2  0  0  0
 14 15  1  0  0  0
 14 34  1  0  0  0
 15 16  1  0  0  0
 15 17  1  0  0  0
 17 18  1  0  0  0
 17 20  1  0  0  0
 18 19  1  0  0  0
 18 30  2  0  0  0
 19 32  1  0  0  0
 20 26  1  0  0  0
 21 22  2  0  0  0
 21 26  1  0  0  0
 22 23  1  0  0  0
 22 27  1  0  0  0
 23 24  2  0  0  0
 24 25  1  0  0  0
 25 26  2  0  0  0
 27 28  2  0  0  0
 27 29  1  0  0  0
 28 35  1  0  0  0
 29 36  1  0  0  0
 29 37  1  0  0  0
 33 38  1  0  0  0
M  END
>  <CHROM.0>
156.58299201,175.45666438,146.26539546

>  <CHROM.1>
91.37082051,3.08679602,-3.24452679,-122.41229617,1.05975859,104.89982760
78.97009539,177.91193236,-66.49679971,13.74600107,5.28769081,7.13002580,25.65125445
-1.89539309,0.23419711,3.02605997

>  <FORMUL>
      FXV    C25 H27 N4 O4 1+

>  <HET>
 FXV  A 401      33

>  <HETNAM>
     FXV METHYL-3-(4'-N-OXOPYRIDYLPHENOYL)-3-METHYL-2-(M-AMIDINO
   2 FXV BENZYL)-PROPIONATE

>  <HETSYN>
     FXV FXV673

>  <Name>
FXV.pdb

>  <RI>
0

>  <Rbt.Current_Directory>
/home/malgorzata/Desktop/rDOCK_IFD/Wyniki/8a_factor_Xa2/IFD

>  <Rbt.Executable>
rbdock ($Id: //depot/dev/client3/rdock/2013.1/src/exe/rbdock.cxx#4 $)

>  <Rbt.Library>
libRbt.so (2013.1, Build901 2013/11/27)

>  <Rbt.Parameter_File>
/home/malgorzata/Desktop/rDock_2013.1_src/data/scripts/hard_docking.prm

>  <Rbt.Receptor>
cavity.prm

>  <SCORE>
-2.88174

>  <SCORE.INTER>
0.68563

>  <SCORE.INTER.CONST>
1

>  <SCORE.INTER.POLAR>
-1.26922

>  <SCORE.INTER.REPUL>
0

>  <SCORE.INTER.ROT>
9

>  <SCORE.INTER.VDW>
-9.39902

>  <SCORE.INTER.norm>
0.0207767

>  <SCORE.INTRA>
-3.47681

>  <SCORE.INTRA.DIHEDRAL>
5.02825

>  <SCORE.INTRA.DIHEDRAL.0>
8.37942

>  <SCORE.INTRA.POLAR>
-1

>  <SCORE.INTRA.POLAR.0>
0

>  <SCORE.INTRA.REPUL>
0

>  <SCORE.INTRA.REPUL.0>
0

>  <SCORE.INTRA.VDW>
-2.59094

>  <SCORE.INTRA.VDW.0>
-0.0658046

>  <SCORE.INTRA.norm>
-0.105358

>  <SCORE.RESTR>
0.875116

>  <SCORE.RESTR.CAVITY>
0.875116

>  <SCORE.RESTR.norm>
0.0265187

>  <SCORE.SYSTEM>
-0.96567

>  <SCORE.SYSTEM.CONST>
0

>  <SCORE.SYSTEM.DIHEDRAL>
1.20685

>  <SCORE.SYSTEM.VDW>
-1.56909

>  <SCORE.SYSTEM.norm>
-0.0292627

>  <SCORE.heavy>
33

>  <SCORE.norm>
-0.0873254

$$$$
FXV.pdb
  rDOCK(R)          3D
libRbt.so/2013.1/901 2013/11/27
 38 40  0  0  0  0  0  0  0  0999 V2000
    9.7363    4.4503   15.6122 C   0  0  0  0  0  0
    8.9613    3.9758   16.7220 C   0  0  0  0  0  0
    8.9296    2.5544   16.9644 C   0  0  0  0  0  0
    9.6548    1.6603   16.1099 C   0  0  0  0  0  0
   10.3922    2.1268   15.0497 N   0  0  0  0  0  0
   10.4302    3.4977   14.8079 C   0  0  0  0  0  0
    6.0620    5.7318   18.6241 C   0  0  0  0  0  0
    6.7773    6.7805   19.3476 C   0  0  0  0  0  0
    8.2047    6.8738   19.1701 C   0  0  0  0  0  0
    8.9092    5.9728   18.3165 C   0  0  0  0  0  0
    8.2208    4.9358   17.6033 C   0  0  0  0  0  0
    6.7965    4.8386   17.7741 C   0  0  0  0  0  0
    6.1333    7.7268   20.2519 C   0  0  0  0  0  0
    4.9606    7.3047   20.7637 N   0  0  0  0  0  0
    4.1899    8.0721   21.7091 C   0  0  0  0  0  0
    4.3020    7.3710   23.0803 C   0  0  0  0  0  0
    2.7194    8.2002   21.1613 C   0  0  0  0  0  0
    2.1994    6.8106   20.7486 C   0  0  0  0  0  0
    0.8462    6.8049   20.6080 O   0  0  0  0  0  0
    2.5679    9.2460   19.9659 C   0  0  0  0  0  0
    4.5622   10.9623   20.1236 C   0  0  0  0  0  0
    5.0610   12.3130   20.3764 C   0  0  0  0  0  0
    4.1061   13.3503   20.7289 C   0  0  0  0  0  0
    2.7086   13.0545   20.8233 C   0  0  0  0  0  0
    2.2285   11.7198   20.5728 C   0  0  0  0  0  0
    3.1345   10.6522   20.2182 C   0  0  0  0  0  0
    6.4884   12.6285   20.2825 C   0  0  0  0  0  0
    7.4275   11.7320   20.5982 N   0  0  0  0  0  0
    6.8633   13.8500   19.8626 N   0  0  0  0  0  0
    2.8958    5.8690   20.5889 O   0  0  0  0  0  0
    6.6357    8.8280   20.5456 O   0  0  0  0  0  0
    0.1224    5.6332   20.2242 C   0  0  0  0  0  0
   11.0816    1.2785   14.2360 O   0  0  0  0  0  0
    4.6132    6.4290   20.4778 H   0  0  0  0  0  0
    7.1670   10.8342   20.9069 H   0  0  0  0  0  0
    6.1818   14.5202   19.6268 H   0  0  0  0  0  0
    7.8194   14.0741   19.7911 H   0  0  0  0  0  0
   11.5755    1.7920   13.5777 H   0  0  0  0  0  0
  1  2  1  0  0  0
  1  6  2  0  0  0
  2  3  1  0  0  0
  2 11  1  0  0  0
  3  4  2  0  0  0
  4  5  1  0  0  0
  5  6  1  0  0  0
  5 33  1  0  0  0
  7  8  2  0  0  0
  7 12  1  0  0  0
  8  9  1  0  0  0
  8 13  1  0  0  0
  9 10  2  0  0  0
 10 11  1  0  0  0
 11 12  2  0  0  0
 13 14  1  0  0  0
 13 31  2  0  0  0
 14 15  1  0  0  0
 14 34  1  0  0  0
 15 16  1  0  0  0
 15 17  1  0  0  0
 17 18  1  0  0  0
 17 20  1  0  0  0
 18 19  1  0  0  0
 18 30  2  0  0  0
 19 32  1  0  0  0
 20 26  1  0  0  0
 21 22  2  0  0  0
 21 26  1  0  0  0
 22 23  1  0  0  0
 22 27  1  0  0  0
 23 24  2  0  0  0
 24 25  1  0  0  0
 25 26  2  0  0  0
 27 28  2  0  0  0
 27 29  1  0  0  0
 28 35  1  0  0  0
 29 36  1  0  0  0
 29 37  1  0  0  0
 33 38  1  0  0  0
M  END
>  <CHROM.0>
-73.01788297,-80.65434560,76.92838553

>  <CHROM.1>
-59.07261642,-177.03787435,23.14303427,-108.34034815,49.46638755,163.79093447
-52.05818103,179.70328393,78.89478676,-32.53377538,5.87215240,7.43968541
19.20273610,-0.91975501,0.43605314,0.24882173

>  <FORMUL>
      FXV    C25 H27 N4 O4 1+

>  <HET>
 FXV  A 401      33

>  <HETNAM>
     FXV METHYL-3-(4'-N-OXOPYRIDYLPHENOYL)-3-METHYL-2-(M-AMIDINO
   2 FXV BENZYL)-PROPIONATE

>  <HETSYN>
     FXV FXV673

>  <Name>
FXV.pdb

>  <RI>
0

>  <Rbt.Current_Directory>
/home/malgorzata/Desktop/rDOCK_IFD/Wyniki/8a_factor_Xa2/IFD

>  <Rbt.Executable>
rbdock ($Id: //depot/dev/client3/rdock/2013.1/src/exe/rbdock.cxx#4 $)

>  <Rbt.Library>
libRbt.so (2013.1, Build901 2013/11/27)

>  <Rbt.Parameter_File>
/home/malgorzata/Desktop/rDock_2013.1_src/data/scripts/hard_docking.prm

>  <Rbt.Receptor>
cavity.prm

>  <SCORE>
-12.9871

>  <SCORE.INTER>
-6.23508

>  <SCORE.INTER.CONST>
1

>  <SCORE.INTER.POLAR>
-0.871576

>  <SCORE.INTER.REPUL>
0.0205691

>  <SCORE.INTER.ROT>
9

>  <SCORE.INTER.VDW>
-17.7746

>  <SCORE.INTER.norm>
-0.188942

>  <SCORE.INTRA>
-5.0752

>  <SCORE.INTRA.DIHEDRAL>
1.61734

>  <SCORE.INTRA.DIHEDRAL.0>
8.37942

>  <SCORE.INTRA.POLAR>
-1.15063

>  <SCORE.INTRA.POLAR.0>
0

>  <SCORE.INTRA.REPUL>
0

>  <SCORE.INTRA.REPUL.0>
0

>  <SCORE.INTRA.VDW>
-1.97171

>  <SCORE.INTRA.VDW.0>
-0.0658046

>  <SCORE.INTRA.norm>
-0.153794

>  <SCORE.RESTR>
1.03139

>  <SCORE.RESTR.CAVITY>
1.03139

>  <SCORE.RESTR.norm>
0.0312542

>  <SCORE.SYSTEM>
-2.70817

>  <SCORE.SYSTEM.CONST>
0

>  <SCORE.SYSTEM.DIHEDRAL>
1.20551

>  <SCORE.SYSTEM.POLAR>
-0.611052

>  <SCORE.SYSTEM.VDW>
-1.23335

>  <SCORE.SYSTEM.norm>
-0.0820658

>  <SCORE.heavy>
33

>  <SCORE.norm>
-0.393547

$$$$
FXV.pdb
  rDOCK(R)          3D
libRbt.so/2013.1/901 2013/11/27
 38 40  0  0  0  0  0  0  0  0999 V2000
    4.0456    7.3563   28.1457 C   0  0  0  0  0  0
    5.0045    6.2919   28.0763 C   0  0  0  0  0  0
    5.4798    5.7298   29.3165 C   0  0  0  0  0  0
    4.9984    6.2349   30.5690 C   0  0  0  0  0  0
    4.0812    7.2554   30.6223 N   0  0  0  0  0  0
    3.6152    7.8041   29.4302 C   0  0  0  0  0  0
    5.6407    3.9136   25.0685 C   0  0  0  0  0  0
    6.3795    4.7838   24.1564 C   0  0  0  0  0  0
    6.6500    6.1351   24.5789 C   0  0  0  0  0  0
    6.2124    6.6202   25.8477 C   0  0  0  0  0  0
    5.4824    5.7787   26.7516 C   0  0  0  0  0  0
    5.2113    4.4287   26.3374 C   0  0  0  0  0  0
    6.8438    4.3695   22.8370 C   0  0  0  0  0  0
    6.8212    3.0390   22.6263 N   0  0  0  0  0  0
    7.1984    2.4313   21.3753 C   0  0  0  0  0  0
    6.8233    0.9354   21.4519 C   0  0  0  0  0  0
    8.7293    2.7074   21.1323 C   0  0  0  0  0  0
    9.1917    1.9693   19.8622 C   0  0  0  0  0  0
    8.5213    2.4025   18.7604 O   0  0  0  0  0  0
    9.6546    2.3370   22.3781 C   0  0  0  0  0  0
    8.8996    2.9006   24.8398 C   0  0  0  0  0  0
    8.8340    3.8258   25.9699 C   0  0  0  0  0  0
    9.4458    5.1365   25.8296 C   0  0  0  0  0  0
   10.0999    5.5103   24.6123 C   0  0  0  0  0  0
   10.1578    4.5910   23.5051 C   0  0  0  0  0  0
    9.5668    3.2758   23.5918 C   0  0  0  0  0  0
    8.1680    3.4550   27.2209 C   0  0  0  0  0  0
    7.7107    2.2175   27.4325 N   0  0  0  0  0  0
    8.0179    4.3826   28.1832 N   0  0  0  0  0  0
   10.0177    1.1238   19.8572 O   0  0  0  0  0  0
    7.2116    5.1804   21.9660 O   0  0  0  0  0  0
    8.7384    1.8411   17.4636 C   0  0  0  0  0  0
    3.6231    7.7373   31.8117 O   0  0  0  0  0  0
    6.5329    2.4532   23.3632 H   0  0  0  0  0  0
    7.8141    1.5289   26.7366 H   0  0  0  0  0  0
    8.3502    5.2983   28.0404 H   0  0  0  0  0  0
    7.5757    4.1459   29.0304 H   0  0  0  0  0  0
    3.2913    8.6405   31.6884 H   0  0  0  0  0  0
  1  2  1  0  0  0
  1  6  2  0  0  0
  2  3  1  0  0  0
  2 11  1  0  0  0
  3  4  2  0  0  0
  4  5  1  0  0  0
  5  6  1  0  0  0
  5 33  1  0  0  0
  7  8  2  0  0  0
  7 12  1  0  0  0
  8  9  1  0  0  0
  8 13  1  0  0  0
  9 10  2  0  0  0
 10 11  1  0  0  0
 11 12  2  0  0  0
 13 14  1  0  0  0
 13 31  2  0  0  0
 14 15  1  0  0  0
 14 34  1  0  0  0
 15 16  1  0  0  0
 15 17  1  0  0  0
 17 18  1  0  0  0
 17 20  1  0  0  0
 18 19  1  0  0  0
 18 30  2  0  0  0
 19 32  1  0  0  0
 20 26  1  0  0  0
 21 22  2  0  0  0
 21 26  1  0  0  0
 22 23  1  0  0  0
 22 27  1  0  0  0
 23 24  2  0  0  0
 24 25  1  0  0  0
 25 26  2  0  0  0
 27 28  2  0  0  0
 27 29  1  0  0  0
 28 35  1  0  0  0
 29 36  1  0  0  0
 29 37  1  0  0  0
 33 38  1  0  0  0
M  END
>  <CHROM.0>
159.74599781,106.42157420,-27.97946086

>  <CHROM.1>
63.43385757,157.20513153,-14.67531312,-170.95888561,175.22573680,61.25563719
-72.40331528,-177.90546274,107.05814814,6.75469140,7.17994460,4.32323156
24.85631162,1.99497755,-0.47867017,1.33042068

>  <FORMUL>
      FXV    C25 H27 N4 O4 1+

>  <HET>
 FXV  A 401      33

>  <HETNAM>
     FXV METHYL-3-(4'-N-OXOPYRIDYLPHENOYL)-3-METHYL-2-(M-AMIDINO
   2 FXV BENZYL)-PROPIONATE

>  <HETSYN>
     FXV FXV673

>  <Name>
FXV.pdb

>  <RI>
0

>  <Rbt.Current_Directory>
/home/malgorzata/Desktop/rDOCK_IFD/Wyniki/8a_factor_Xa2/IFD

>  <Rbt.Executable>
rbdock ($Id: //depot/dev/client3/rdock/2013.1/src/exe/rbdock.cxx#4 $)

>  <Rbt.Library>
libRbt.so (2013.1, Build901 2013/11/27)

>  <Rbt.Parameter_File>
/home/malgorzata/Desktop/rDock_2013.1_src/data/scripts/hard_docking.prm

>  <Rbt.Receptor>
cavity.prm

>  <SCORE>
-2.30069

>  <SCORE.INTER>
3.52751

>  <SCORE.INTER.CONST>
1

>  <SCORE.INTER.POLAR>
-0.487021

>  <SCORE.INTER.REPUL>
0

>  <SCORE.INTER.ROT>
9

>  <SCORE.INTER.VDW>
-9.21662

>  <SCORE.INTER.norm>
0.106894

>  <SCORE.INTRA>
-6.22835

>  <SCORE.INTRA.DIHEDRAL>
-2.77235

>  <SCORE.INTRA.DIHEDRAL.0>
8.37942

>  <SCORE.INTRA.POLAR>
0

>  <SCORE.INTRA.POLAR.0>
0

>  <SCORE.INTRA.REPUL>
0

>  <SCORE.INTRA.REPUL.0>
0

>  <SCORE.INTRA.VDW>
-4.84217

>  <SCORE.INTRA.VDW.0>
-0.0658046

>  <SCORE.INTRA.norm>
-0.188738

>  <SCORE.RESTR>
0

>  <SCORE.RESTR.CAVITY>
0

>  <SCORE.RESTR.norm>
0

>  <SCORE.SYSTEM>
0.400152

>  <SCORE.SYSTEM.CONST>
0

>  <SCORE.SYSTEM.DIHEDRAL>
1.20671

>  <SCORE.SYSTEM.REPUL>
0.055867

>  <SCORE.SYSTEM.VDW>
-0.482538

>  <SCORE.SYSTEM.norm>
0.0121258

>  <SCORE.heavy>
33

>  <SCORE.norm>
-0.0697179

$$$$
FXV.pdb
  rDOCK(R)          3D
libRbt.so/2013.1/901 2013/11/27
 38 40  0  0  0  0  0  0  0  0999 V2000
    7.3864    3.8497   28.5662 C   0  0  0  0  0  0
    7.8802    5.1241   28.1313 C   0  0  0  0  0  0
    8.2606    6.0809   29.1412 C   0  0  0  0  0  0
    8.1390    5.7500   30.5309 C   0  0  0  0  0  0
    7.6635    4.5268   30.9347 N   0  0  0  0  0  0
    7.2947    3.5955   29.9672 C   0  0  0  0  0  0
    9.0320    4.9633   24.4225 C   0  0  0  0  0  0
    8.2249    6.0205   23.8176 C   0  0  0  0  0  0
    7.3279    6.7601   24.6697 C   0  0  0  0  0  0
    7.2218    6.4757   26.0642 C   0  0  0  0  0  0
    8.0046    5.4379   26.6709 C   0  0  0  0  0  0
    8.9032    4.6978   25.8270 C   0  0  0  0  0  0
    8.2618    6.3588   22.3990 C   0  0  0  0  0  0
    7.8023    7.5903   22.1037 N   0  0  0  0  0  0
    7.7949    8.1309   20.7679 C   0  0  0  0  0  0
    8.9785    9.1165   20.6572 C   0  0  0  0  0  0
    6.3833    8.7758   20.5024 C   0  0  0  0  0  0
    5.8801    8.3602   19.1075 C   0  0  0  0  0  0
    5.9507    7.0129   18.9317 O   0  0  0  0  0  0
    6.3600   10.3623   20.6698 C   0  0  0  0  0  0
    5.2071   11.7732   22.5746 C   0  0  0  0  0  0
    5.1707   12.2589   23.9529 C   0  0  0  0  0  0
    6.2294   11.8499   24.8606 C   0  0  0  0  0  0
    7.2817   10.9884   24.4138 C   0  0  0  0  0  0
    7.3079   10.5164   23.0533 C   0  0  0  0  0  0
    6.2801   10.8918   22.1104 C   0  0  0  0  0  0
    4.0991   13.1405   24.4224 C   0  0  0  0  0  0
    3.9888   13.4881   25.7078 N   0  0  0  0  0  0
    3.2066   13.6166   23.5359 N   0  0  0  0  0  0
    5.4946    9.1251   18.2929 O   0  0  0  0  0  0
    8.7023    5.5813   21.5313 O   0  0  0  0  0  0
    5.6323    6.3867   17.6864 C   0  0  0  0  0  0
    7.5465    4.2107   32.2550 O   0  0  0  0  0  0
    7.4545    8.1484   22.8365 H   0  0  0  0  0  0
    4.6353   13.1468   26.3672 H   0  0  0  0  0  0
    3.2762   13.3685   22.5857 H   0  0  0  0  0  0
    2.4837   14.2133   23.8372 H   0  0  0  0  0  0
    7.1791    3.3172   32.3423 H   0  0  0  0  0  0
  1  2  1  0  0  0
  1  6  2  0  0  0
  2  3  1  0  0  0
  2 11  1  0  0  0
  3  4  2  0  0  0
  4  5  1  0  0  0
  5  6  1  0  0  0
  5 33  1  0  0  0
  7  8  2  0  0  0
  7 12  1  0  0  0
  8  9  1  0  0  0
  8 13  1  0  0  0
  9 10  2  0  0  0
 10 11  1  0  0  0
 11 12  2  0  0  0
 13 14  1  0  0  0
 13 31  2  0  0  0
 14 15  1  0  0  0
 14 34  1  0  0  0
 15 16  1  0  0  0
 15 17  1  0  0  0
 17 18  1  0  0  0
 17 20  1  0  0  0
 18 19  1  0  0  0
 18 30  2  0  0  0
 19 32  1  0  0  0
 20 26  1  0  0  0
 21 22  2  0  0  0
 21 26  1  0  0  0
 22 23  1  0  0  0
 22 27  1  0  0  0
 23 24  2  0  0  0
 24 25  1  0  0  0
 25 26  2  0  0  0
 27 28  2  0  0  0
 27 29  1  0  0  0
 28 35  1  0  0  0
 29 36  1  0  0  0
 29 37  1  0  0  0
 33 38  1  0  0  0
M  END
>  <CHROM.0>
-90.95534159,-68.44179926,75.19296570

>  <CHROM.1>
115.68385986,178.88907313,-159.76527932,-102.47796574,-135.20181986,50.83195496
-79.60041580,-175.40465282,-122.31800512,173.66984695,6.91099957,7.95719406
24.14239212,-1.05783752,1.16584805,-1.50334993

>  <FORMUL>
      FXV    C25 H27 N4 O4 1+

>  <HET>
 FXV  A 401      33

>  <HETNAM>
     FXV METHYL-3-(4'-N-OXOPYRIDYLPHENOYL)-3-METHYL-2-(M-AMIDINO
   2 FXV BENZYL)-PROPIONATE

>  <HETSYN>
     FXV FXV673

>  <Name>
FXV.pdb

>  <RI>
0

>  <Rbt.Current_Directory>
/home/malgorzata/Desktop/rDOCK_IFD/Wyniki/8a_factor_Xa2/IFD

>  <Rbt.Executable>
rbdock ($Id: //depot/dev/client3/rdock/2013.1/src/exe/rbdock.cxx#4 $)

>  <Rbt.Library>
libRbt.so (2013.1, Build901 2013/11/27)

>  <Rbt.Parameter_File>
/home/malgorzata/Desktop/rDock_2013.1_src/data/scripts/hard_docking.prm

>  <Rbt.Receptor>
cavity.prm

>  <SCORE>
-6.23278

>  <SCORE.INTER>
-6.96429

>  <SCORE.INTER.CONST>
1

>  <SCORE.INTER.POLAR>
-1.36347

>  <SCORE.INTER.REPUL>
0.0359458

>  <SCORE.INTER.ROT>
9

>  <SCORE.INTER.VDW>
-16.9082

>  <SCORE.INTER.norm>
-0.211039

>  <SCORE.INTRA>
3.44697

>  <SCORE.INTRA.DIHEDRAL>
2.38922

>  <SCORE.INTRA.DIHEDRAL.0>
8.37942

>  <SCORE.INTRA.POLAR>
0

>  <SCORE.INTRA.POLAR.0>
0

>  <SCORE.INTRA.REPUL>
0

>  <SCORE.INTRA.REPUL.0>
0

>  <SCORE.INTRA.VDW>
2.25237

>  <SCORE.INTRA.VDW.0>
-0.0658046

>  <SCORE.INTRA.norm>
0.104454

>  <SCORE.RESTR>
0

>  <SCORE.RESTR.CAVITY>
0

>  <SCORE.RESTR.norm>
0

>  <SCORE.SYSTEM>
-2.71547

>  <SCORE.SYSTEM.CONST>
0

>  <SCORE.SYSTEM.DIHEDRAL>
1.20819

>  <SCORE.SYSTEM.POLAR>
-0.619762

>  <SCORE.SYSTEM.VDW>
-1.21237

>  <SCORE.SYSTEM.norm>
-0.0822869

>  <SCORE.heavy>
33

>  <SCORE.norm>
-0.188872

$$$$
FXV.pdb
  rDOCK(R)          3D
libRbt.so/2013.1/901 2013/11/27
 38 40  0  0  0  0  0  0  0  0999 V2000
    5.0767    5.3811   19.1441 C   0  0  0  0  0  0
    5.5145    6.4247   20.0253 C   0  0  0  0  0  0
    6.1376    7.5858   19.4391 C   0  0  0  0  0  0
    6.3068    7.6739   18.0182 C   0  0  0  0  0  0
    5.8846    6.6674   17.1850 N   0  0  0  0  0  0
    5.2807    5.5425   17.7412 C   0  0  0  0  0  0
    3.9025    5.5942   23.4632 C   0  0  0  0  0  0
    4.9378    6.0453   24.3904 C   0  0  0  0  0  0
    6.1381    6.6214   23.8380 C   0  0  0  0  0  0
    6.3215    6.7507   22.4286 C   0  0  0  0  0  0
    5.3157    6.3082   21.5064 C   0  0  0  0  0  0
    4.1148    5.7349   22.0508 C   0  0  0  0  0  0
    4.8342    5.9308   25.8410 C   0  0  0  0  0  0
    5.8867    6.4274   26.5197 N   0  0  0  0  0  0
    5.9587    6.4497   27.9588 C   0  0  0  0  0  0
    6.7488    7.7123   28.3665 C   0  0  0  0  0  0
    6.5992    5.0957   28.4437 C   0  0  0  0  0  0
    6.6541    5.0725   29.9825 C   0  0  0  0  0  0
    7.6776    5.8327   30.4576 O   0  0  0  0  0  0
    8.0364    4.8034   27.8155 C   0  0  0  0  0  0
    7.0449    3.8081   25.5852 C   0  0  0  0  0  0
    7.1244    3.5968   24.1408 C   0  0  0  0  0  0
    8.2584    4.1509   23.4202 C   0  0  0  0  0  0
    9.2721    4.8890   24.1107 C   0  0  0  0  0  0
    9.1838    5.0904   25.5342 C   0  0  0  0  0  0
    8.0778    4.5620   26.2982 C   0  0  0  0  0  0
    6.0934    2.8438   23.4227 C   0  0  0  0  0  0
    6.1462    2.6683   22.0991 N   0  0  0  0  0  0
    5.0702    2.3107   24.1140 N   0  0  0  0  0  0
    5.9040    4.4573   30.6579 O   0  0  0  0  0  0
    3.8437    5.4336   26.4093 O   0  0  0  0  0  0
    7.9346    5.9809   31.8562 C   0  0  0  0  0  0
    6.0452    6.7489   15.8343 O   0  0  0  0  0  0
    6.6438    6.7930   26.0074 H   0  0  0  0  0  0
    6.8896    3.0531   21.5809 H   0  0  0  0  0  0
    5.0190    2.4324   25.0897 H   0  0  0  0  0  0
    4.3725    1.7988   23.6445 H   0  0  0  0  0  0
    6.4984    7.5773   15.6121 H   0  0  0  0  0  0
  1  2  1  0  0  0
  1  6  2  0  0  0
  2  3  1  0  0  0
  2 11  1  0  0  0
  3  4  2  0  0  0
  4  5  1  0  0  0
  5  6  1  0  0  0
  5 33  1  0  0  0
  7  8  2  0  0  0
  7 12  1  0  0  0
  8  9  1  0  0  0
  8 13  1  0  0  0
  9 10  2  0  0  0
 10 11  1  0  0  0
 11 12  2  0  0  0
 13 14  1  0  0  0
 13 31  2  0  0  0
 14 15  1  0  0  0
 14 34  1  0  0  0
 15 16  1  0  0  0
 15 17  1  0  0  0
 17 18  1  0  0  0
 17 20  1  0  0  0
 18 19  1  0  0  0
 18 30  2  0  0  0
 19 32  1  0  0  0
 20 26  1  0  0  0
 21 22  2  0  0  0
 21 26  1  0  0  0
 22 23  1  0  0  0
 22 27  1  0  0  0
 23 24  2  0  0  0
 24 25  1  0  0  0
 25 26  2  0  0  0
 27 28  2  0  0  0
 27 29  1  0  0  0
 28 35  1  0  0  0
 29 36  1  0  0  0
 29 37  1  0  0  0
 33 38  1  0  0  0
M  END
>  <CHROM.0>
102.15966993,-116.56983611,76.31023812

>  <CHROM.1>
140.67604313,1.38223107,-178.89854288,-146.98045463,-178.44102140,-77.47087739
-65.85668082,179.57079742,-38.57182803,178.71005597,6.27795094,5.46332449
24.24087563,-1.86959933,-1.18154303,1.36910118

>  <FORMUL>
      FXV    C25 H27 N4 O4 1+

>  <HET>
 FXV  A 401      33

>  <HETNAM>
     FXV METHYL-3-(4'-N-OXOPYRIDYLPHENOYL)-3-METHYL-2-(M-AMIDINO
   2 FXV BENZYL)-PROPIONATE

>  <HETSYN>
     FXV FXV673

>  <Name>
FXV.pdb

>  <RI>
0

>  <Rbt.Current_Directory>
/home/malgorzata/Desktop/rDOCK_IFD/Wyniki/8a_factor_Xa2/IFD

>  <Rbt.Executable>
rbdock ($Id: //depot/dev/client3/rdock/2013.1/src/exe/rbdock.cxx#4 $)

>  <Rbt.Library>
libRbt.so (2013.1, Build901 2013/11/27)

>  <Rbt.Parameter_File>
/home/malgorzata/Desktop/rDock_2013.1_src/data/scripts/hard_docking.prm

>  <Rbt.Receptor>
cavity.prm

>  <SCORE>
-3.90618

>  <SCORE.INTER>
3.44147

>  <SCORE.INTER.CONST>
1

>  <SCORE.INTER.POLAR>
0

>  <SCORE.INTER.REPUL>
0.034432

>  <SCORE.INTER.ROT>
9

>  <SCORE.INTER.VDW>
-11.1307

>  <SCORE.INTER.norm>
0.104287

>  <SCORE.INTRA>
-4.74398

>  <SCORE.INTRA.DIHEDRAL>
-4.49943

>  <SCORE.INTRA.DIHEDRAL.0>
8.37942

>  <SCORE.INTRA.POLAR>
0

>  <SCORE.INTRA.POLAR.0>
0

>  <SCORE.INTRA.REPUL>
0

>  <SCORE.INTRA.REPUL.0>
0

>  <SCORE.INTRA.VDW>
-2.49427

>  <SCORE.INTRA.VDW.0>
-0.0658046

>  <SCORE.INTRA.norm>
-0.143757

>  <SCORE.RESTR>
0.248126

>  <SCORE.RESTR.CAVITY>
0.248126

>  <SCORE.RESTR.norm>
0.00751896

>  <SCORE.SYSTEM>
-2.85179

>  <SCORE.SYSTEM.CONST>
0

>  <SCORE.SYSTEM.DIHEDRAL>
1.19436

>  <SCORE.SYSTEM.POLAR>
-0.61445

>  <SCORE.SYSTEM.VDW>
-1.35984

>  <SCORE.SYSTEM.norm>
-0.0864178

>  <SCORE.heavy>
33

>  <SCORE.norm>
-0.118369

$$$$
FXV.pdb
  rDOCK(R)          3D
libRbt.so/2013.1/901 2013/11/27
 38 40  0  0  0  0  0  0  0  0999 V2000
    7.4185    3.6039   28.5971 C   0  0  0  0  0  0
    7.9139    4.9013   28.2386 C   0  0  0  0  0  0
    8.2079    5.8292   29.3029 C   0  0  0  0  0  0
    8.0023    5.4482   30.6697 C   0  0  0  0  0  0
    7.5262    4.2034   31.0001 N   0  0  0  0  0  0
    7.2404    3.2998   29.9797 C   0  0  0  0  0  0
    7.5342    6.6802   24.8037 C   0  0  0  0  0  0
    8.5630    6.0113   24.0105 C   0  0  0  0  0  0
    9.3452    4.9805   24.6457 C   0  0  0  0  0  0
    9.1308    4.6168   26.0089 C   0  0  0  0  0  0
    8.1274    5.2677   26.8010 C   0  0  0  0  0  0
    7.3419    6.2953   26.1728 C   0  0  0  0  0  0
    8.8558    6.3382   22.6193 C   0  0  0  0  0  0
    8.2323    7.4401   22.1586 N   0  0  0  0  0  0
    8.4220    7.9557   20.8264 C   0  0  0  0  0  0
    9.7675    8.7132   20.8068 C   0  0  0  0  0  0
    7.1723    8.8381   20.4542 C   0  0  0  0  0  0
    7.0062    9.9623   21.4935 C   0  0  0  0  0  0
    6.6825   11.1446   20.9033 O   0  0  0  0  0  0
    5.8219    8.0038   20.2929 C   0  0  0  0  0  0
    4.7786    6.0683   18.8392 C   0  0  0  0  0  0
    4.6488    5.3627   17.5655 C   0  0  0  0  0  0
    5.4109    5.8436   16.4254 C   0  0  0  0  0  0
    6.2668    6.9846   16.5482 C   0  0  0  0  0  0
    6.3875    7.6716   17.8084 C   0  0  0  0  0  0
    5.6518    7.2358   18.9725 C   0  0  0  0  0  0
    3.7761    4.1943   17.4268 C   0  0  0  0  0  0
    3.2341    3.5930   18.4898 N   0  0  0  0  0  0
    3.5091    3.7180   16.1976 N   0  0  0  0  0  0
    7.1561    9.8102   22.6560 O   0  0  0  0  0  0
    9.6359    5.6664   21.9183 O   0  0  0  0  0  0
    6.5657   11.2845   19.4852 C   0  0  0  0  0  0
    7.3294    3.8397   32.2985 O   0  0  0  0  0  0
    7.6169    7.9164   22.7616 H   0  0  0  0  0  0
    3.4212    3.9313   19.3952 H   0  0  0  0  0  0
    3.9019    4.1515   15.4057 H   0  0  0  0  0  0
    2.9210    2.9359   16.0897 H   0  0  0  0  0  0
    7.4891    4.6028   32.8757 H   0  0  0  0  0  0
  1  2  1  0  0  0
  1  6  2  0  0  0
  2  3  1  0  0  0
  2 11  1  0  0  0
  3  4  2  0  0  0
  4  5  1  0  0  0
  5  6  1  0  0  0
  5 33  1  0  0  0
  7  8  2  0  0  0
  7 12  1  0  0  0
  8  9  1  0  0  0
  8 13  1  0  0  0
  9 10  2  0  0  0
 10 11  1  0  0  0
 11 12  2  0  0  0
 13 14  1  0  0  0
 13 31  2  0  0  0
 14 15  1  0  0  0
 14 34  1  0  0  0
 15 16  1  0  0  0
 15 17  1  0  0  0
 17 18  1  0  0  0
 17 20  1  0  0  0
 18 19  1  0  0  0
 18 30  2  0  0  0
 19 32  1  0  0  0
 20 26  1  0  0  0
 21 22  2  0  0  0
 21 26  1  0  0  0
 22 23  1  0  0  0
 22 27  1  0  0  0
 23 24  2  0  0  0
 24 25  1  0  0  0
 25 26  2  0  0  0
 27 28  2  0  0  0
 27 29  1  0  0  0
 28 35  1  0  0  0
 29 36  1  0  0  0
 29 37  1  0  0  0
 33 38  1  0  0  0
M  END
>  <CHROM.0>
124.97485725,-57.58329974,136.62676069

>  <CHROM.1>
-66.34523923,5.57025846,8.86601543,-78.19712161,57.36004744,138.40220582
-78.26499601,-1.88324628,156.54420795,-11.01970801,7.04627706,6.42413921
22.87266046,1.15571441,1.05784976,2.13114706

>  <FORMUL>
      FXV    C25 H27 N4 O4 1+

>  <HET>
 FXV  A 401      33

>  <HETNAM>
     FXV METHYL-3-(4'-N-OXOPYRIDYLPHENOYL)-3-METHYL-2-(M-AMIDINO
   2 FXV BENZYL)-PROPIONATE

>  <HETSYN>
     FXV FXV673

>  <Name>
FXV.pdb

>  <RI>
0

>  <Rbt.Current_Directory>
/home/malgorzata/Desktop/rDOCK_IFD/Wyniki/8a_factor_Xa2/IFD

>  <Rbt.Executable>
rbdock ($Id: //depot/dev/client3/rdock/2013.1/src/exe/rbdock.cxx#4 $)

>  <Rbt.Library>
libRbt.so (2013.1, Build901 2013/11/27)

>  <Rbt.Parameter_File>
/home/malgorzata/Desktop/rDock_2013.1_src/data/scripts/hard_docking.prm

>  <Rbt.Receptor>
cavity.prm

>  <SCORE>
-3.05656

>  <SCORE.INTER>
-5.11271

>  <SCORE.INTER.CONST>
1

>  <SCORE.INTER.POLAR>
0

>  <SCORE.INTER.REPUL>
0

>  <SCORE.INTER.ROT>
9

>  <SCORE.INTER.VDW>
-19.5127

>  <SCORE.INTER.norm>
-0.154931

>  <SCORE.INTRA>
2.90059

>  <SCORE.INTRA.DIHEDRAL>
-0.827085

>  <SCORE.INTRA.DIHEDRAL.0>
8.37942

>  <SCORE.INTRA.POLAR>
0

>  <SCORE.INTRA.POLAR.0>
0

>  <SCORE.INTRA.REPUL>
0

>  <SCORE.INTRA.REPUL.0>
0

>  <SCORE.INTRA.VDW>
3.31413

>  <SCORE.INTRA.VDW.0>
-0.0658046

>  <SCORE.INTRA.norm>
0.0878966

>  <SCORE.RESTR>
0

>  <SCORE.RESTR.CAVITY>
0

>  <SCORE.RESTR.norm>
0

>  <SCORE.SYSTEM>
-0.844442

>  <SCORE.SYSTEM.CONST>
0

>  <SCORE.SYSTEM.DIHEDRAL>
1.20171

>  <SCORE.SYSTEM.VDW>
-1.4453

>  <SCORE.SYSTEM.norm>
-0.0255891

>  <SCORE.heavy>
33

>  <SCORE.norm>
-0.0926232

$$$$
FXV.pdb
  rDOCK(R)          3D
libRbt.so/2013.1/901 2013/11/27
 38 40  0  0  0  0  0  0  0  0999 V2000
    4.1165    5.3878   18.5457 C   0  0  0  0  0  0
    3.3384    5.1024   19.7164 C   0  0  0  0  0  0
    2.5690    3.8827   19.7344 C   0  0  0  0  0  0
    2.5926    2.9978   18.6066 C   0  0  0  0  0  0
    3.3405    3.2829   17.4909 N   0  0  0  0  0  0
    4.0880    4.4577   17.4642 C   0  0  0  0  0  0
    3.9212    6.5305   23.2841 C   0  0  0  0  0  0
    3.3813    7.8818   23.1520 C   0  0  0  0  0  0
    2.8310    8.2703   21.8776 C   0  0  0  0  0  0
    2.8104    7.3705   20.7701 C   0  0  0  0  0  0
    3.3408    6.0424   20.8838 C   0  0  0  0  0  0
    3.8890    5.6476   22.1531 C   0  0  0  0  0  0
    3.3827    8.8654   24.2293 C   0  0  0  0  0  0
    3.2228   10.1406   23.8252 N   0  0  0  0  0  0
    3.1527   11.2547   24.7366 C   0  0  0  0  0  0
    1.6609   11.5977   24.9397 C   0  0  0  0  0  0
    4.0173   12.4314   24.1477 C   0  0  0  0  0  0
    3.3921   12.9212   22.8283 C   0  0  0  0  0  0
    3.3657   11.9350   21.8914 O   0  0  0  0  0  0
    5.5563   12.0606   23.9486 C   0  0  0  0  0  0
    5.7532   10.6671   26.1774 C   0  0  0  0  0  0
    6.5058   10.2670   27.3651 C   0  0  0  0  0  0
    7.8308   10.8284   27.5683 C   0  0  0  0  0  0
    8.3857   11.7502   26.6240 C   0  0  0  0  0  0
    7.6348   12.1379   25.4576 C   0  0  0  0  0  0
    6.3142   11.6092   25.2072 C   0  0  0  0  0  0
    5.9492    9.3244   28.3385 C   0  0  0  0  0  0
    6.6211    8.9731   29.4388 N   0  0  0  0  0  0
    4.7283    8.8033   28.1219 N   0  0  0  0  0  0
    2.9989   14.0225   22.6562 O   0  0  0  0  0  0
    3.5004    8.5516   25.4290 O   0  0  0  0  0  0
    2.9237   12.1653   20.5513 C   0  0  0  0  0  0
    3.3637    2.4436   16.4177 O   0  0  0  0  0  0
    3.1502   10.3202   22.8599 H   0  0  0  0  0  0
    7.5156    9.3470   29.6096 H   0  0  0  0  0  0
    4.2223    9.0535   27.3153 H   0  0  0  0  0  0
    4.3406    8.1717   28.7700 H   0  0  0  0  0  0
    3.6198    2.9399   15.6246 H   0  0  0  0  0  0
  1  2  1  0  0  0
  1  6  2  0  0  0
  2  3  1  0  0  0
  2 11  1  0  0  0
  3  4  2  0  0  0
  4  5  1  0  0  0
  5  6  1  0  0  0
  5 33  1  0  0  0
  7  8  2  0  0  0
  7 12  1  0  0  0
  8  9  1  0  0  0
  8 13  1  0  0  0
  9 10  2  0  0  0
 10 11  1  0  0  0
 11 12  2  0  0  0
 13 14  1  0  0  0
 13 31  2  0  0  0
 14 15  1  0  0  0
 14 34  1  0  0  0
 15 16  1  0  0  0
 15 17  1  0  0  0
 17 18  1  0  0  0
 17 20  1  0  0  0
 18 19  1  0  0  0
 18 30  2  0  0  0
 19 32  1  0  0  0
 20 26  1  0  0  0
 21 22  2  0  0  0
 21 26  1  0  0  0
 22 23  1  0  0  0
 22 27  1  0  0  0
 23 24  2  0  0  0
 24 25  1  0  0  0
 25 26  2  0  0  0
 27 28  2  0  0  0
 27 29  1  0  0  0
 28 35  1  0  0  0
 29 36  1  0  0  0
 29 37  1  0  0  0
 33 38  1  0  0  0
M  END
>  <CHROM.0>
-95.84789497,135.98484266,75.51374086

>  <CHROM.1>
64.84173451,157.00038248,161.08057235,-98.65731399,64.73953824,-61.50952426
-58.18853929,-175.31054982,43.95383189,-178.74571469,4.21686143,8.79348658
23.10654055,2.09347971,1.11225583,-2.78208092

>  <FORMUL>
      FXV    C25 H27 N4 O4 1+

>  <HET>
 FXV  A 401      33

>  <HETNAM>
     FXV METHYL-3-(4'-N-OXOPYRIDYLPHENOYL)-3-METHYL-2-(M-AMIDINO
   2 FXV BENZYL)-PROPIONATE

>  <HETSYN>
     FXV FXV673

>  <Name>
FXV.pdb

>  <RI>
0

>  <Rbt.Current_Directory>
/home/malgorzata/Desktop/rDOCK_IFD/Wyniki/8a_factor_Xa2/IFD

>  <Rbt.Executable>
rbdock ($Id: //depot/dev/client3/rdock/2013.1/src/exe/rbdock.cxx#4 $)

>  <Rbt.Library>
libRbt.so (2013.1, Build901 2013/11/27)

>  <Rbt.Parameter_File>
/home/malgorzata/Desktop/rDock_2013.1_src/data/scripts/hard_docking.prm

>  <Rbt.Receptor>
cavity.prm

>  <SCORE>
-13.7005

>  <SCORE.INTER>
-2.7061

>  <SCORE.INTER.CONST>
1

>  <SCORE.INTER.POLAR>
-1.21849

>  <SCORE.INTER.REPUL>
0

>  <SCORE.INTER.ROT>
9

>  <SCORE.INTER.VDW>
-12.9632

>  <SCORE.INTER.norm>
-0.082003

>  <SCORE.INTRA>
-8.18187

>  <SCORE.INTRA.DIHEDRAL>
-2.84783

>  <SCORE.INTRA.DIHEDRAL.0>
8.37942

>  <SCORE.INTRA.POLAR>
-1.59337

>  <SCORE.INTRA.POLAR.0>
0

>  <SCORE.INTRA.REPUL>
0

>  <SCORE.INTRA.REPUL.0>
0

>  <SCORE.INTRA.VDW>
-1.34048

>  <SCORE.INTRA.VDW.0>
-0.0658046

>  <SCORE.INTRA.norm>
-0.247936

>  <SCORE.RESTR>
0

>  <SCORE.RESTR.CAVITY>
0

>  <SCORE.RESTR.norm>
0

>  <SCORE.SYSTEM>
-2.81253

>  <SCORE.SYSTEM.CONST>
0

>  <SCORE.SYSTEM.DIHEDRAL>
1.20805

>  <SCORE.SYSTEM.POLAR>
-0.618346

>  <SCORE.SYSTEM.VDW>
-1.31418

>  <SCORE.SYSTEM.norm>
-0.0852281

>  <SCORE.heavy>
33

>  <SCORE.norm>
-0.415167

$$$$
FXV.pdb
  rDOCK(R)          3D
libRbt.so/2013.1/901 2013/11/27
 38 40  0  0  0  0  0  0  0  0999 V2000
   -0.6455    7.2004   19.5728 C   0  0  0  0  0  0
    0.5434    6.8247   20.2816 C   0  0  0  0  0  0
    0.7451    7.3737   21.5999 C   0  0  0  0  0  0
   -0.2232    8.2670   22.1655 C   0  0  0  0  0  0
   -1.3571    8.6202   21.4762 N   0  0  0  0  0  0
   -1.5616    8.0946   20.2029 C   0  0  0  0  0  0
    3.8922    5.0240   19.4749 C   0  0  0  0  0  0
    3.4609    4.0221   18.5028 C   0  0  0  0  0  0
    2.0662    3.9856   18.1404 C   0  0  0  0  0  0
    1.1252    4.8954   18.7092 C   0  0  0  0  0  0
    1.5334    5.8814   19.6679 C   0  0  0  0  0  0
    2.9237    5.9248   20.0320 C   0  0  0  0  0  0
    4.3563    3.0462   17.8913 C   0  0  0  0  0  0
    5.6467    3.1592   18.2616 N   0  0  0  0  0  0
    6.6804    2.2653   17.8046 C   0  0  0  0  0  0
    6.7258    1.0681   18.7789 C   0  0  0  0  0  0
    8.0269    3.0751   17.7046 C   0  0  0  0  0  0
    7.7251    4.5310   17.3036 C   0  0  0  0  0  0
    7.3647    5.2813   18.3798 O   0  0  0  0  0  0
    9.0985    2.4209   16.7201 C   0  0  0  0  0  0
   11.6819    2.1817   17.1859 C   0  0  0  0  0  0
   13.0221    2.7623   17.2491 C   0  0  0  0  0  0
   13.1856    4.1675   16.9167 C   0  0  0  0  0  0
   12.0588    4.9629   16.5335 C   0  0  0  0  0  0
   10.7427    4.3806   16.4753 C   0  0  0  0  0  0
   10.5247    2.9889   16.7948 C   0  0  0  0  0  0
   14.1832    1.9588   17.6394 C   0  0  0  0  0  0
   14.0540    0.6980   18.0625 N   0  0  0  0  0  0
   15.4112    2.5023   17.5646 N   0  0  0  0  0  0
    7.7888    4.9340   16.1942 O   0  0  0  0  0  0
    3.9585    2.1647   17.1063 O   0  0  0  0  0  0
    6.9881    6.6556   18.2620 C   0  0  0  0  0  0
   -2.2782    9.4697   22.0117 O   0  0  0  0  0  0
    5.8956    3.8883   18.8746 H   0  0  0  0  0  0
   13.1610    0.2878   18.1220 H   0  0  0  0  0  0
   15.5207    3.4303   17.2546 H   0  0  0  0  0  0
   16.2006    1.9723   17.8200 H   0  0  0  0  0  0
   -3.0419    9.5349   21.4172 H   0  0  0  0  0  0
  1  2  1  0  0  0
  1  6  2  0  0  0
  2  3  1  0  0  0
  2 11  1  0  0  0
  3  4  2  0  0  0
  4  5  1  0  0  0
  5  6  1  0  0  0
  5 33  1  0  0  0
  7  8  2  0  0  0
  7 12  1  0  0  0
  8  9  1  0  0  0
  8 13  1  0  0  0
  9 10  2  0  0  0
 10 11  1  0  0  0
 11 12  2  0  0  0
 13 14  1  0  0  0
 13 31  2  0  0  0
 14 15  1  0  0  0
 14 34  1  0  0  0
 15 16  1  0  0  0
 15 17  1  0  0  0
 17 18  1  0  0  0
 17 20  1  0  0  0
 18 19  1  0  0  0
 18 30  2  0  0  0
 19 32  1  0  0  0
 20 26  1  0  0  0
 21 22  2  0  0  0
 21 26  1  0  0  0
 22 23  1  0  0  0
 22 27  1  0  0  0
 23 24  2  0  0  0
 24 25  1  0  0  0
 25 26  2  0  0  0
 27 28  2  0  0  0
 27 29  1  0  0  0
 28 35  1  0  0  0
 29 36  1  0  0  0
 29 37  1  0  0  0
 33 38  1  0  0  0
M  END
>  <CHROM.0>
140.66390086,106.85371983,75.22904029

>  <CHROM.1>
-27.84486077,-174.83895910,-1.94966201,-87.92524170,-33.01477348,82.37494957
-167.81703878,-177.72327797,117.87683153,-5.79017257,6.04164285,4.58150676
18.51420170,2.73276047,0.12241776,0.35787668

>  <FORMUL>
      FXV    C25 H27 N4 O4 1+

>  <HET>
 FXV  A 401      33

>  <HETNAM>
     FXV METHYL-3-(4'-N-OXOPYRIDYLPHENOYL)-3-METHYL-2-(M-AMIDINO
   2 FXV BENZYL)-PROPIONATE

>  <HETSYN>
     FXV FXV673

>  <Name>
FXV.pdb

>  <RI>
0

>  <Rbt.Current_Directory>
/home/malgorzata/Desktop/rDOCK_IFD/Wyniki/8a_factor_Xa2/IFD

>  <Rbt.Executable>
rbdock ($Id: //depot/dev/client3/rdock/2013.1/src/exe/rbdock.cxx#4 $)

>  <Rbt.Library>
libRbt.so (2013.1, Build901 2013/11/27)

>  <Rbt.Parameter_File>
/home/malgorzata/Desktop/rDock_2013.1_src/data/scripts/hard_docking.prm

>  <Rbt.Receptor>
cavity.prm

>  <SCORE>
-9.82048

>  <SCORE.INTER>
-6.76825

>  <SCORE.INTER.CONST>
1

>  <SCORE.INTER.POLAR>
-1.12297

>  <SCORE.INTER.REPUL>
0

>  <SCORE.INTER.ROT>
9

>  <SCORE.INTER.VDW>
-17.3502

>  <SCORE.INTER.norm>
-0.205098

>  <SCORE.INTRA>
-2.44651

>  <SCORE.INTRA.DIHEDRAL>
-0.877937

>  <SCORE.INTRA.DIHEDRAL.0>
8.37942

>  <SCORE.INTRA.POLAR>
-0.433937

>  <SCORE.INTRA.POLAR.0>
0

>  <SCORE.INTRA.REPUL>
0

>  <SCORE.INTRA.REPUL.0>
0

>  <SCORE.INTRA.VDW>
-0.532157

>  <SCORE.INTRA.VDW.0>
-0.0658046

>  <SCORE.INTRA.norm>
-0.0741367

>  <SCORE.RESTR>
2.23294

>  <SCORE.RESTR.CAVITY>
2.23294

>  <SCORE.RESTR.norm>
0.0676648

>  <SCORE.SYSTEM>
-2.83866

>  <SCORE.SYSTEM.CONST>
0

>  <SCORE.SYSTEM.DIHEDRAL>
1.20681

>  <SCORE.SYSTEM.POLAR>
-0.619607

>  <SCORE.SYSTEM.VDW>
-1.3354

>  <SCORE.SYSTEM.norm>
-0.08602

>  <SCORE.heavy>
33

>  <SCORE.norm>
-0.29759

$$$$
FXV.pdb
  rDOCK(R)          3D
libRbt.so/2013.1/901 2013/11/27
 38 40  0  0  0  0  0  0  0  0999 V2000
    9.3551   -3.6696   16.5468 C   0  0  0  0  0  0
    9.4169   -3.1483   17.8815 C   0  0  0  0  0  0
   10.0982   -3.9329   18.8817 C   0  0  0  0  0  0
   10.6866   -5.1929   18.5329 C   0  0  0  0  0  0
   10.6196   -5.6820   17.2516 N   0  0  0  0  0  0
    9.9649   -4.9313   16.2783 C   0  0  0  0  0  0
    6.8583   -0.4865   19.0966 C   0  0  0  0  0  0
    7.6063    0.7529   18.8978 C   0  0  0  0  0  0
    8.9386    0.6610   18.3554 C   0  0  0  0  0  0
    9.5208   -0.5981   18.0203 C   0  0  0  0  0  0
    8.8001   -1.8233   18.2140 C   0  0  0  0  0  0
    7.4696   -1.7386   18.7525 C   0  0  0  0  0  0
    7.0895    2.0754   19.2325 C   0  0  0  0  0  0
    5.7623    2.2213   19.0525 N   0  0  0  0  0  0
    5.0519    3.4353   19.3657 C   0  0  0  0  0  0
    3.9245    3.0734   20.3569 C   0  0  0  0  0  0
    4.5527    4.0788   18.0182 C   0  0  0  0  0  0
    3.8839    2.9991   17.1472 C   0  0  0  0  0  0
    3.1385    3.5510   16.1519 O   0  0  0  0  0  0
    5.6965    4.8403   17.2074 C   0  0  0  0  0  0
    7.7688    5.5479   18.6747 C   0  0  0  0  0  0
    8.5132    6.5621   19.4194 C   0  0  0  0  0  0
    7.9783    7.9121   19.4770 C   0  0  0  0  0  0
    6.7514    8.2400   18.8164 C   0  0  0  0  0  0
    6.0260    7.2325   18.0862 C   0  0  0  0  0  0
    6.5134    5.8758   17.9965 C   0  0  0  0  0  0
    9.7700    6.2392   20.0992 C   0  0  0  0  0  0
   10.5667    7.1923   20.5914 N   0  0  0  0  0  0
   10.1284    4.9501   20.2363 N   0  0  0  0  0  0
    3.9992    1.8379   17.3358 O   0  0  0  0  0  0
    7.8117    2.9910   19.6701 O   0  0  0  0  0  0
    2.4030    2.7571   15.2176 C   0  0  0  0  0  0
   11.1775   -6.8797   16.9184 O   0  0  0  0  0  0
    5.2528    1.4613   18.6891 H   0  0  0  0  0  0
   10.3163    8.1398   20.4980 H   0  0  0  0  0  0
    9.5508    4.2378   19.8784 H   0  0  0  0  0  0
   10.9686    4.7188   20.6946 H   0  0  0  0  0  0
   11.1288   -7.0028   15.9574 H   0  0  0  0  0  0
  1  2  1  0  0  0
  1  6  2  0  0  0
  2  3  1  0  0  0
  2 11  1  0  0  0
  3  4  2  0  0  0
  4  5  1  0  0  0
  5  6  1  0  0  0
  5 33  1  0  0  0
  7  8  2  0  0  0
  7 12  1  0  0  0
  8  9  1  0  0  0
  8 13  1  0  0  0
  9 10  2  0  0  0
 10 11  1  0  0  0
 11 12  2  0  0  0
 13 14  1  0  0  0
 13 31  2  0  0  0
 14 15  1  0  0  0
 14 34  1  0  0  0
 15 16  1  0  0  0
 15 17  1  0  0  0
 17 18  1  0  0  0
 17 20  1  0  0  0
 18 19  1  0  0  0
 18 30  2  0  0  0
 19 32  1  0  0  0
 20 26  1  0  0  0
 21 22  2  0  0  0
 21 26  1  0  0  0
 22 23  1  0  0  0
 22 27  1  0  0  0
 23 24  2  0  0  0
 24 25  1  0  0  0
 25 26  2  0  0  0
 27 28  2  0  0  0
 27 29  1  0  0  0
 28 35  1  0  0  0
 29 36  1  0  0  0
 29 37  1  0  0  0
 33 38  1  0  0  0
M  END
>  <CHROM.0>
-143.31941155,-72.60636283,73.71824077

>  <CHROM.1>
-85.48185690,-172.85237705,-34.03991052,-123.70896016,47.43748350,164.04046794
-51.56562233,-179.16737456,92.48704691,168.77079562,7.47933194,1.69402452
18.33837900,1.23374851,0.34503970,-2.91360740

>  <FORMUL>
      FXV    C25 H27 N4 O4 1+

>  <HET>
 FXV  A 401      33

>  <HETNAM>
     FXV METHYL-3-(4'-N-OXOPYRIDYLPHENOYL)-3-METHYL-2-(M-AMIDINO
   2 FXV BENZYL)-PROPIONATE

>  <HETSYN>
     FXV FXV673

>  <Name>
FXV.pdb

>  <RI>
0

>  <Rbt.Current_Directory>
/home/malgorzata/Desktop/rDOCK_IFD/Wyniki/8a_factor_Xa2/IFD

>  <Rbt.Executable>
rbdock ($Id: //depot/dev/client3/rdock/2013.1/src/exe/rbdock.cxx#4 $)

>  <Rbt.Library>
libRbt.so (2013.1, Build901 2013/11/27)

>  <Rbt.Parameter_File>
/home/malgorzata/Desktop/rDock_2013.1_src/data/scripts/hard_docking.prm

>  <Rbt.Receptor>
cavity.prm

>  <SCORE>
-11.3277

>  <SCORE.INTER>
-3.326

>  <SCORE.INTER.CONST>
1

>  <SCORE.INTER.POLAR>
-0.667999

>  <SCORE.INTER.REPUL>
0.0320694

>  <SCORE.INTER.ROT>
9

>  <SCORE.INTER.VDW>
-15.6151

>  <SCORE.INTER.norm>
-0.100788

>  <SCORE.INTRA>
-5.34277

>  <SCORE.INTRA.DIHEDRAL>
0.689414

>  <SCORE.INTRA.DIHEDRAL.0>
8.37942

>  <SCORE.INTRA.POLAR>
-1.16489

>  <SCORE.INTRA.POLAR.0>
0

>  <SCORE.INTRA.REPUL>
0

>  <SCORE.INTRA.REPUL.0>
0

>  <SCORE.INTRA.VDW>
-1.72686

>  <SCORE.INTRA.VDW.0>
-0.0658046

>  <SCORE.INTRA.norm>
-0.161902

>  <SCORE.RESTR>
0.0797522

>  <SCORE.RESTR.CAVITY>
0.0797522

>  <SCORE.RESTR.norm>
0.00241673

>  <SCORE.SYSTEM>
-2.7387

>  <SCORE.SYSTEM.CONST>
0

>  <SCORE.SYSTEM.DIHEDRAL>
1.19347

>  <SCORE.SYSTEM.POLAR>
-0.625133

>  <SCORE.SYSTEM.VDW>
-1.20998

>  <SCORE.SYSTEM.norm>
-0.0829909

>  <SCORE.heavy>
33

>  <SCORE.norm>
-0.343264

$$$$
FXV.pdb
  rDOCK(R)          3D
libRbt.so/2013.1/901 2013/11/27
 38 40  0  0  0  0  0  0  0  0999 V2000
    3.0915    6.1774   25.5839 C   0  0  0  0  0  0
    3.5107    5.0721   24.7717 C   0  0  0  0  0  0
    4.1053    3.9363   25.4325 C   0  0  0  0  0  0
    4.2655    3.9328   26.8572 C   0  0  0  0  0  0
    3.8613    4.9979   27.6238 N   0  0  0  0  0  0
    3.2849    6.0989   26.9953 C   0  0  0  0  0  0
    1.8196    5.3977   21.2872 C   0  0  0  0  0  0
    2.9542    5.1940   20.3892 C   0  0  0  0  0  0
    4.2469    4.9451   20.9762 C   0  0  0  0  0  0
    4.4256    4.8984   22.3913 C   0  0  0  0  0  0
    3.3218    5.1008   23.2850 C   0  0  0  0  0  0
    2.0290    5.3472   22.7061 C   0  0  0  0  0  0
    2.8574    5.2452   18.9346 C   0  0  0  0  0  0
    4.0401    5.1940   18.2913 N   0  0  0  0  0  0
    4.1580    5.1880   16.8551 C   0  0  0  0  0  0
    3.6396    3.8238   16.3504 C   0  0  0  0  0  0
    5.6560    5.4948   16.4799 C   0  0  0  0  0  0
    6.5668    4.3896   17.0463 C   0  0  0  0  0  0
    7.8369    4.4962   16.5705 O   0  0  0  0  0  0
    6.1518    6.9385   16.9440 C   0  0  0  0  0  0
    5.1946    7.9498   19.1820 C   0  0  0  0  0  0
    5.2903    8.1617   20.6253 C   0  0  0  0  0  0
    6.4231    7.5931   21.3362 C   0  0  0  0  0  0
    7.4203    6.8404   20.6374 C   0  0  0  0  0  0
    7.3162    6.6385   19.2151 C   0  0  0  0  0  0
    6.2104    7.1811   18.4605 C   0  0  0  0  0  0
    4.2762    8.9297   21.3519 C   0  0  0  0  0  0
    3.2244    9.4690   20.7289 N   0  0  0  0  0  0
    4.4043    9.0914   22.6810 N   0  0  0  0  0  0
    6.1962    3.5498   17.7909 O   0  0  0  0  0  0
    1.7688    5.3093   18.3328 O   0  0  0  0  0  0
    8.8709    3.5803   16.9396 C   0  0  0  0  0  0
    4.0134    4.9968   28.9779 O   0  0  0  0  0  0
    4.8642    5.1589   18.8288 H   0  0  0  0  0  0
    3.1184    9.3583   19.7564 H   0  0  0  0  0  0
    5.1745    8.6993   23.1526 H   0  0  0  0  0  0
    3.7280    9.6018   23.1823 H   0  0  0  0  0  0
    3.5551    5.7639   29.3554 H   0  0  0  0  0  0
  1  2  1  0  0  0
  1  6  2  0  0  0
  2  3  1  0  0  0
  2 11  1  0  0  0
  3  4  2  0  0  0
  4  5  1  0  0  0
  5  6  1  0  0  0
  5 33  1  0  0  0
  7  8  2  0  0  0
  7 12  1  0  0  0
  8  9  1  0  0  0
  8 13  1  0  0  0
  9 10  2  0  0  0
 10 11  1  0  0  0
 11 12  2  0  0  0
 13 14  1  0  0  0
 13 31  2  0  0  0
 14 15  1  0  0  0
 14 34  1  0  0  0
 15 16  1  0  0  0
 15 17  1  0  0  0
 17 18  1  0  0  0
 17 20  1  0  0  0
 18 19  1  0  0  0
 18 30  2  0  0  0
 19 32  1  0  0  0
 20 26  1  0  0  0
 21 22  2  0  0  0
 21 26  1  0  0  0
 22 23  1  0  0  0
 22 27  1  0  0  0
 23 24  2  0  0  0
 24 25  1  0  0  0
 25 26  2  0  0  0
 27 28  2  0  0  0
 27 29  1  0  0  0
 28 35  1  0  0  0
 29 36  1  0  0  0
 29 37  1  0  0  0
 33 38  1  0  0  0
M  END
>  <CHROM.0>
-92.91096226,-82.33776767,75.65374784

>  <CHROM.1>
125.01676881,-171.61806861,172.28668185,-70.17312482,61.94731010,170.28516891
65.08198215,-179.50081915,-102.50014050,-0.07162289,4.63566581,5.77016594
20.95623681,2.41737973,-1.23695850,2.36709301

>  <FORMUL>
      FXV    C25 H27 N4 O4 1+

>  <HET>
 FXV  A 401      33

>  <HETNAM>
     FXV METHYL-3-(4'-N-OXOPYRIDYLPHENOYL)-3-METHYL-2-(M-AMIDINO
   2 FXV BENZYL)-PROPIONATE

>  <HETSYN>
     FXV FXV673

>  <Name>
FXV.pdb

>  <RI>
0

>  <Rbt.Current_Directory>
/home/malgorzata/Desktop/rDOCK_IFD/Wyniki/8a_factor_Xa2/IFD

>  <Rbt.Executable>
rbdock ($Id: //depot/dev/client3/rdock/2013.1/src/exe/rbdock.cxx#4 $)

>  <Rbt.Library>
libRbt.so (2013.1, Build901 2013/11/27)

>  <Rbt.Parameter_File>
/home/malgorzata/Desktop/rDock_2013.1_src/data/scripts/hard_docking.prm

>  <Rbt.Receptor>
cavity.prm

>  <SCORE>
-4.70963

>  <SCORE.INTER>
2.59949

>  <SCORE.INTER.CONST>
1

>  <SCORE.INTER.POLAR>
0

>  <SCORE.INTER.REPUL>
0

>  <SCORE.INTER.ROT>
9

>  <SCORE.INTER.VDW>
-11.8005

>  <SCORE.INTER.norm>
0.0787726

>  <SCORE.INTRA>
-4.53283

>  <SCORE.INTRA.DIHEDRAL>
-4.54353

>  <SCORE.INTRA.DIHEDRAL.0>
8.37942

>  <SCORE.INTRA.POLAR>
0

>  <SCORE.INTRA.POLAR.0>
0

>  <SCORE.INTRA.REPUL>
0

>  <SCORE.INTRA.REPUL.0>
0

>  <SCORE.INTRA.VDW>
-2.26107

>  <SCORE.INTRA.VDW.0>
-0.0658046

>  <SCORE.INTRA.norm>
-0.137359

>  <SCORE.RESTR>
0

>  <SCORE.RESTR.CAVITY>
0

>  <SCORE.RESTR.norm>
0

>  <SCORE.SYSTEM>
-2.77629

>  <SCORE.SYSTEM.CONST>
0

>  <SCORE.SYSTEM.DIHEDRAL>
1.20839

>  <SCORE.SYSTEM.POLAR>
-0.617701

>  <SCORE.SYSTEM.VDW>
-1.2803

>  <SCORE.SYSTEM.norm>
-0.08413

>  <SCORE.heavy>
33

>  <SCORE.norm>
-0.142716

$$$$
