FXV.pdb
  rDOCK(R)          3D
libRbt.so/2013.1/901 2013/11/27
 38 40  0  0  0  0  0  0  0  0999 V2000
    4.5765   17.9227   15.8533 C   0  0  0  0  0  0
    3.3825   17.7578   15.0760 C   0  0  0  0  0  0
    3.4362   18.0990   13.6757 C   0  0  0  0  0  0
    4.6540   18.5883   13.0985 C   0  0  0  0  0  0
    5.7903   18.7431   13.8536 N   0  0  0  0  0  0
    5.7491   18.4152   15.2064 C   0  0  0  0  0  0
    0.2056   15.6086   15.7053 C   0  0  0  0  0  0
   -0.3012   16.1891   16.9468 C   0  0  0  0  0  0
    0.4293   17.2864   17.5297 C   0  0  0  0  0  0
    1.6149   17.7980   16.9219 C   0  0  0  0  0  0
    2.1265   17.2353   15.7055 C   0  0  0  0  0  0
    1.4012   16.1419   15.1174 C   0  0  0  0  0  0
   -1.4932   15.7113   17.6389 C   0  0  0  0  0  0
   -1.8929   16.4846   18.6672 N   0  0  0  0  0  0
   -3.0711   16.2100   19.4501 C   0  0  0  0  0  0
   -3.7685   17.5586   19.7317 C   0  0  0  0  0  0
   -2.6354   15.4201   20.7404 C   0  0  0  0  0  0
   -2.7438   13.9061   20.4801 C   0  0  0  0  0  0
   -2.1756   13.1845   21.4838 O   0  0  0  0  0  0
   -3.4447   15.8346   22.0514 C   0  0  0  0  0  0
   -3.1410   18.3697   22.7065 C   0  0  0  0  0  0
   -2.5274   19.4039   23.5378 C   0  0  0  0  0  0
   -1.5902   18.9974   24.5715 C   0  0  0  0  0  0
   -1.2784   17.6147   24.7714 C   0  0  0  0  0  0
   -1.8884   16.6042   23.9460 C   0  0  0  0  0  0
   -2.8271   16.9535   22.9051 C   0  0  0  0  0  0
   -2.8385   20.8221   23.3435 C   0  0  0  0  0  0
   -3.7091   21.2288   22.4150 N   0  0  0  0  0  0
   -2.2366   21.7379   24.1233 N   0  0  0  0  0  0
   -3.2483   13.4389   19.5186 O   0  0  0  0  0  0
   -2.1062   14.6830   17.2951 O   0  0  0  0  0  0
   -2.1056   11.7568   21.4540 C   0  0  0  0  0  0
    6.9485   19.2087   13.3070 O   0  0  0  0  0  0
   -1.3535   17.2762   18.8949 H   0  0  0  0  0  0
   -4.1568   20.5691   21.8375 H   0  0  0  0  0  0
   -1.5930   21.4520   24.8113 H   0  0  0  0  0  0
   -2.4395   22.6942   24.0061 H   0  0  0  0  0  0
    6.7434   19.7572   12.5337 H   0  0  0  0  0  0
  1  2  1  0  0  0
  1  6  2  0  0  0
  2  3  1  0  0  0
  2 11  1  0  0  0
  3  4  2  0  0  0
  4  5  1  0  0  0
  5  6  1  0  0  0
  5 33  1  0  0  0
  7  8  2  0  0  0
  7 12  1  0  0  0
  8  9  1  0  0  0
  8 13  1  0  0  0
  9 10  2  0  0  0
 10 11  1  0  0  0
 11 12  2  0  0  0
 13 14  1  0  0  0
 13 31  2  0  0  0
 14 15  1  0  0  0
 14 34  1  0  0  0
 15 16  1  0  0  0
 15 17  1  0  0  0
 17 18  1  0  0  0
 17 20  1  0  0  0
 18 19  1  0  0  0
 18 30  2  0  0  0
 19 32  1  0  0  0
 20 26  1  0  0  0
 21 22  2  0  0  0
 21 26  1  0  0  0
 22 23  1  0  0  0
 22 27  1  0  0  0
 23 24  2  0  0  0
 24 25  1  0  0  0
 25 26  2  0  0  0
 27 28  2  0  0  0
 27 29  1  0  0  0
 28 35  1  0  0  0
 29 36  1  0  0  0
 29 37  1  0  0  0
 33 38  1  0  0  0
M  END
>  <CHROM.0>
80.18329039,-29.30516836,-92.66659068,-80.13885240,-177.13290072,-60.66992230
-4.24814190,-102.56387026

>  <CHROM.1>
50.08423480,25.96359894,-171.77400093,-139.79417119,-93.05431825,170.08160729
-91.62591978,-177.76494349,90.67607239,1.04460493,-0.33580219,17.09755928
19.05070665,-0.39106212,0.78882373,0.61219389

>  <FORMUL>
      FXV    C25 H27 N4 O4 1+

>  <HET>
 FXV  A 401      33

>  <HETNAM>
     FXV METHYL-3-(4'-N-OXOPYRIDYLPHENOYL)-3-METHYL-2-(M-AMIDINO
   2 FXV BENZYL)-PROPIONATE

>  <HETSYN>
     FXV FXV673

>  <Name>
FXV.pdb

>  <RI>
0

>  <Rbt.Current_Directory>
/home/malgorzata/Desktop/rDOCK_IFD/test8/IFD

>  <Rbt.Executable>
rbdock ($Id: //depot/dev/client3/rdock/2013.1/src/exe/rbdock.cxx#4 $)

>  <Rbt.Library>
libRbt.so (2013.1, Build901 2013/11/27)

>  <Rbt.Parameter_File>
/home/malgorzata/Desktop/rDock_2013.1_src/data/scripts/hard_docking.prm

>  <Rbt.Receptor>
cavity.prm

>  <SCORE>
-0.848065

>  <SCORE.INTER>
1.12467

>  <SCORE.INTER.CONST>
1

>  <SCORE.INTER.POLAR>
-0.490027

>  <SCORE.INTER.REPUL>
0

>  <SCORE.INTER.ROT>
9

>  <SCORE.INTER.VDW>
-11.6092

>  <SCORE.INTER.norm>
0.0340808

>  <SCORE.INTRA>
3.51324

>  <SCORE.INTRA.DIHEDRAL>
1.86717

>  <SCORE.INTRA.DIHEDRAL.0>
8.37942

>  <SCORE.INTRA.POLAR>
0

>  <SCORE.INTRA.POLAR.0>
0

>  <SCORE.INTRA.REPUL>
0

>  <SCORE.INTRA.REPUL.0>
0

>  <SCORE.INTRA.VDW>
2.57966

>  <SCORE.INTRA.VDW.0>
-0.0658046

>  <SCORE.INTRA.norm>
0.106462

>  <SCORE.RESTR>
0.238254

>  <SCORE.RESTR.CAVITY>
0.238254

>  <SCORE.RESTR.norm>
0.00721981

>  <SCORE.SYSTEM>
-5.72422

>  <SCORE.SYSTEM.CONST>
0

>  <SCORE.SYSTEM.DIHEDRAL>
2.80681

>  <SCORE.SYSTEM.POLAR>
-1.07478

>  <SCORE.SYSTEM.VDW>
-3.47339

>  <SCORE.SYSTEM.norm>
-0.173461

>  <SCORE.heavy>
33

>  <SCORE.norm>
-0.0256989

$$$$
FXV.pdb
  rDOCK(R)          3D
libRbt.so/2013.1/901 2013/11/27
 38 40  0  0  0  0  0  0  0  0999 V2000
    5.8494   19.3499   14.2856 C   0  0  0  0  0  0
    4.9715   20.3269   14.8617 C   0  0  0  0  0  0
    4.9039   21.6252   14.2372 C   0  0  0  0  0  0
    5.6991   21.9111   13.0791 C   0  0  0  0  0  0
    6.5369   20.9676   12.5375 N   0  0  0  0  0  0
    6.6085   19.7105   13.1325 C   0  0  0  0  0  0
    3.8973   19.8759   18.5699 C   0  0  0  0  0  0
    2.5284   19.3867   18.4223 C   0  0  0  0  0  0
    2.0104   19.2141   17.0883 C   0  0  0  0  0  0
    2.8017   19.5107   15.9382 C   0  0  0  0  0  0
    4.1455   19.9958   16.0678 C   0  0  0  0  0  0
    4.6693   20.1679   17.3958 C   0  0  0  0  0  0
    1.6506   19.0796   19.5462 C   0  0  0  0  0  0
    0.4348   18.6152   19.1981 N   0  0  0  0  0  0
   -0.5616   18.2136   20.1586 C   0  0  0  0  0  0
   -0.2908   16.7374   20.5219 C   0  0  0  0  0  0
   -1.9837   18.4814   19.5383 C   0  0  0  0  0  0
   -2.2033   19.9980   19.3862 C   0  0  0  0  0  0
   -3.0802   20.2780   18.3844 O   0  0  0  0  0  0
   -3.1780   17.8095   20.3556 C   0  0  0  0  0  0
   -3.2999   15.3111   21.1869 C   0  0  0  0  0  0
   -3.5157   13.8903   20.9184 C   0  0  0  0  0  0
   -3.8329   13.4814   19.5604 C   0  0  0  0  0  0
   -3.9341   14.4500   18.5112 C   0  0  0  0  0  0
   -3.7188   15.8472   18.7871 C   0  0  0  0  0  0
   -3.4018   16.3074   20.1190 C   0  0  0  0  0  0
   -3.4154   12.8895   21.9835 C   0  0  0  0  0  0
   -3.5011   11.5810   21.7273 N   0  0  0  0  0  0
   -3.2266   13.2981   23.2509 N   0  0  0  0  0  0
   -1.6628   20.8107   20.0530 O   0  0  0  0  0  0
    2.0024   19.2147   20.7334 O   0  0  0  0  0  0
   -3.4412   21.6170   18.0364 C   0  0  0  0  0  0
    7.2941   21.2377   11.4372 O   0  0  0  0  0  0
    0.2163   18.5468   18.2406 H   0  0  0  0  0  0
   -3.6391   11.2682   20.8041 H   0  0  0  0  0  0
   -3.1617   14.2593   23.4538 H   0  0  0  0  0  0
   -3.1535   12.6360   23.9759 H   0  0  0  0  0  0
    7.1095   22.1394   11.1311 H   0  0  0  0  0  0
  1  2  1  0  0  0
  1  6  2  0  0  0
  2  3  1  0  0  0
  2 11  1  0  0  0
  3  4  2  0  0  0
  4  5  1  0  0  0
  5  6  1  0  0  0
  5 33  1  0  0  0
  7  8  2  0  0  0
  7 12  1  0  0  0
  8  9  1  0  0  0
  8 13  1  0  0  0
  9 10  2  0  0  0
 10 11  1  0  0  0
 11 12  2  0  0  0
 13 14  1  0  0  0
 13 31  2  0  0  0
 14 15  1  0  0  0
 14 34  1  0  0  0
 15 16  1  0  0  0
 15 17  1  0  0  0
 17 18  1  0  0  0
 17 20  1  0  0  0
 18 19  1  0  0  0
 18 30  2  0  0  0
 19 32  1  0  0  0
 20 26  1  0  0  0
 21 22  2  0  0  0
 21 26  1  0  0  0
 22 23  1  0  0  0
 22 27  1  0  0  0
 23 24  2  0  0  0
 24 25  1  0  0  0
 25 26  2  0  0  0
 27 28  2  0  0  0
 27 29  1  0  0  0
 28 35  1  0  0  0
 29 36  1  0  0  0
 29 37  1  0  0  0
 33 38  1  0  0  0
M  END
>  <CHROM.0>
75.54657063,-30.30237769,35.65513617,-90.86106374,-49.65023057,-60.66992230
-159.29940674,-80.29675858

>  <CHROM.1>
-93.30468937,-1.76444222,-178.73461349,-86.05053126,-67.16086515,153.49001492
-79.33902440,-179.40753964,119.26564563,-174.35665410,0.52582973,18.25063333
18.15697306,-0.57927557,-0.55888854,2.94862860

>  <FORMUL>
      FXV    C25 H27 N4 O4 1+

>  <HET>
 FXV  A 401      33

>  <HETNAM>
     FXV METHYL-3-(4'-N-OXOPYRIDYLPHENOYL)-3-METHYL-2-(M-AMIDINO
   2 FXV BENZYL)-PROPIONATE

>  <HETSYN>
     FXV FXV673

>  <Name>
FXV.pdb

>  <RI>
0

>  <Rbt.Current_Directory>
/home/malgorzata/Desktop/rDOCK_IFD/test8/IFD

>  <Rbt.Executable>
rbdock ($Id: //depot/dev/client3/rdock/2013.1/src/exe/rbdock.cxx#4 $)

>  <Rbt.Library>
libRbt.so (2013.1, Build901 2013/11/27)

>  <Rbt.Parameter_File>
/home/malgorzata/Desktop/rDock_2013.1_src/data/scripts/hard_docking.prm

>  <Rbt.Receptor>
cavity.prm

>  <SCORE>
-8.36194

>  <SCORE.INTER>
-6.0241

>  <SCORE.INTER.CONST>
1

>  <SCORE.INTER.POLAR>
-0.604717

>  <SCORE.INTER.REPUL>
0

>  <SCORE.INTER.ROT>
9

>  <SCORE.INTER.VDW>
-18.3681

>  <SCORE.INTER.norm>
-0.182549

>  <SCORE.INTRA>
-0.367786

>  <SCORE.INTRA.DIHEDRAL>
-2.51522

>  <SCORE.INTRA.DIHEDRAL.0>
8.37942

>  <SCORE.INTRA.POLAR>
0

>  <SCORE.INTRA.POLAR.0>
0

>  <SCORE.INTRA.REPUL>
0

>  <SCORE.INTRA.REPUL.0>
0

>  <SCORE.INTRA.VDW>
0.889822

>  <SCORE.INTRA.VDW.0>
-0.0658046

>  <SCORE.INTRA.norm>
-0.011145

>  <SCORE.RESTR>
0.0909799

>  <SCORE.RESTR.CAVITY>
0.0909799

>  <SCORE.RESTR.norm>
0.00275697

>  <SCORE.SYSTEM>
-2.06104

>  <SCORE.SYSTEM.CONST>
0

>  <SCORE.SYSTEM.DIHEDRAL>
3.94493

>  <SCORE.SYSTEM.POLAR>
-1.06703

>  <SCORE.SYSTEM.REPUL>
0.00507863

>  <SCORE.SYSTEM.VDW>
-0.43099

>  <SCORE.SYSTEM.norm>
-0.0624557

>  <SCORE.heavy>
33

>  <SCORE.norm>
-0.253392

$$$$
FXV.pdb
  rDOCK(R)          3D
libRbt.so/2013.1/901 2013/11/27
 38 40  0  0  0  0  0  0  0  0999 V2000
    3.4727   20.7193   14.8362 C   0  0  0  0  0  0
    4.0214   19.6373   15.6013 C   0  0  0  0  0  0
    5.4533   19.4654   15.5965 C   0  0  0  0  0  0
    6.2846   20.3573   14.8422 C   0  0  0  0  0  0
    5.7472   21.3888   14.1124 N   0  0  0  0  0  0
    4.3656   21.5640   14.1115 C   0  0  0  0  0  0
    1.4935   18.3726   18.2693 C   0  0  0  0  0  0
    1.3561   16.9653   17.9007 C   0  0  0  0  0  0
    2.1194   16.4810   16.7780 C   0  0  0  0  0  0
    2.9858   17.3420   16.0398 C   0  0  0  0  0  0
    3.1274   18.7266   16.3874 C   0  0  0  0  0  0
    2.3706   19.2156   17.5079 C   0  0  0  0  0  0
    0.4786   16.0272   18.5920 C   0  0  0  0  0  0
   -0.1920   16.5513   19.6363 N   0  0  0  0  0  0
   -1.1401   15.8025   20.4219 C   0  0  0  0  0  0
   -2.5306   16.4379   20.2047 C   0  0  0  0  0  0
   -0.6513   15.8007   21.9185 C   0  0  0  0  0  0
   -0.5087   17.2508   22.4168 C   0  0  0  0  0  0
   -0.5981   17.3245   23.7724 O   0  0  0  0  0  0
    0.6967   14.9800   22.1532 C   0  0  0  0  0  0
    0.8710   13.1152   20.2984 C   0  0  0  0  0  0
    0.8498   11.7077   19.9039 C   0  0  0  0  0  0
    0.6379   10.7024   20.9317 C   0  0  0  0  0  0
    0.4569   11.0837   22.2996 C   0  0  0  0  0  0
    0.4789   12.4736   22.6768 C   0  0  0  0  0  0
    0.6867   13.5128   21.6953 C   0  0  0  0  0  0
    1.0341   11.3046   18.5076 C   0  0  0  0  0  0
    1.0421   12.1982   17.5143 N   0  0  0  0  0  0
    1.2053   10.0022   18.2187 N   0  0  0  0  0  0
   -0.3542   18.1794   21.7019 O   0  0  0  0  0  0
    0.3424   14.8419   18.2341 O   0  0  0  0  0  0
   -0.5365   18.5676   24.4762 C   0  0  0  0  0  0
    6.5356   22.2371   13.3943 O   0  0  0  0  0  0
   -0.0263   17.4922   19.8745 H   0  0  0  0  0  0
    0.9180   13.1547   17.7118 H   0  0  0  0  0  0
    1.2016    9.3331   18.9410 H   0  0  0  0  0  0
    1.3343    9.7178   17.2850 H   0  0  0  0  0  0
    6.2110   23.1454   13.4975 H   0  0  0  0  0  0
  1  2  1  0  0  0
  1  6  2  0  0  0
  2  3  1  0  0  0
  2 11  1  0  0  0
  3  4  2  0  0  0
  4  5  1  0  0  0
  5  6  1  0  0  0
  5 33  1  0  0  0
  7  8  2  0  0  0
  7 12  1  0  0  0
  8  9  1  0  0  0
  8 13  1  0  0  0
  9 10  2  0  0  0
 10 11  1  0  0  0
 11 12  2  0  0  0
 13 14  1  0  0  0
 13 31  2  0  0  0
 14 15  1  0  0  0
 14 34  1  0  0  0
 15 16  1  0  0  0
 15 17  1  0  0  0
 17 18  1  0  0  0
 17 20  1  0  0  0
 18 19  1  0  0  0
 18 30  2  0  0  0
 19 32  1  0  0  0
 20 26  1  0  0  0
 21 22  2  0  0  0
 21 26  1  0  0  0
 22 23  1  0  0  0
 22 27  1  0  0  0
 23 24  2  0  0  0
 24 25  1  0  0  0
 25 26  2  0  0  0
 27 28  2  0  0  0
 27 29  1  0  0  0
 28 35  1  0  0  0
 29 36  1  0  0  0
 29 37  1  0  0  0
 33 38  1  0  0  0
M  END
>  <CHROM.0>
-87.48293206,-27.54631126,-95.85572390,-89.45904078,-176.73345220,-60.66992230
-7.09311085,-99.03110138

>  <CHROM.1>
113.78920494,-138.65899370,-1.35365007,-114.75457511,57.59253480,156.49093955
-55.76856197,-178.09753605,79.75603882,-9.50372582,1.54803680,16.41638241
18.83185366,0.60591276,0.99598085,0.14083741

>  <FORMUL>
      FXV    C25 H27 N4 O4 1+

>  <HET>
 FXV  A 401      33

>  <HETNAM>
     FXV METHYL-3-(4'-N-OXOPYRIDYLPHENOYL)-3-METHYL-2-(M-AMIDINO
   2 FXV BENZYL)-PROPIONATE

>  <HETSYN>
     FXV FXV673

>  <Name>
FXV.pdb

>  <RI>
0

>  <Rbt.Current_Directory>
/home/malgorzata/Desktop/rDOCK_IFD/test8/IFD

>  <Rbt.Executable>
rbdock ($Id: //depot/dev/client3/rdock/2013.1/src/exe/rbdock.cxx#4 $)

>  <Rbt.Library>
libRbt.so (2013.1, Build901 2013/11/27)

>  <Rbt.Parameter_File>
/home/malgorzata/Desktop/rDock_2013.1_src/data/scripts/hard_docking.prm

>  <Rbt.Receptor>
cavity.prm

>  <SCORE>
-18.3902

>  <SCORE.INTER>
-6.25402

>  <SCORE.INTER.CONST>
1

>  <SCORE.INTER.POLAR>
-1.2942

>  <SCORE.INTER.REPUL>
0.00269895

>  <SCORE.INTER.ROT>
9

>  <SCORE.INTER.VDW>
-16.2672

>  <SCORE.INTER.norm>
-0.189516

>  <SCORE.INTRA>
-6.32912

>  <SCORE.INTRA.DIHEDRAL>
-2.02462

>  <SCORE.INTRA.DIHEDRAL.0>
8.37942

>  <SCORE.INTRA.POLAR>
-1.09022

>  <SCORE.INTRA.POLAR.0>
0

>  <SCORE.INTRA.REPUL>
0

>  <SCORE.INTRA.REPUL.0>
0

>  <SCORE.INTRA.VDW>
-1.61006

>  <SCORE.INTRA.VDW.0>
-0.0658046

>  <SCORE.INTRA.norm>
-0.191791

>  <SCORE.RESTR>
0

>  <SCORE.RESTR.CAVITY>
0

>  <SCORE.RESTR.norm>
0

>  <SCORE.SYSTEM>
-5.80708

>  <SCORE.SYSTEM.CONST>
0

>  <SCORE.SYSTEM.DIHEDRAL>
2.77581

>  <SCORE.SYSTEM.POLAR>
-1.05365

>  <SCORE.SYSTEM.VDW>
-3.61257

>  <SCORE.SYSTEM.norm>
-0.175972

>  <SCORE.heavy>
33

>  <SCORE.norm>
-0.557279

$$$$
FXV.pdb
  rDOCK(R)          3D
libRbt.so/2013.1/901 2013/11/27
 38 40  0  0  0  0  0  0  0  0999 V2000
   -2.2652   24.2423   17.9810 C   0  0  0  0  0  0
   -3.6192   24.0074   18.3918 C   0  0  0  0  0  0
   -4.4682   25.1536   18.6049 C   0  0  0  0  0  0
   -3.9552   26.4780   18.4092 C   0  0  0  0  0  0
   -2.6564   26.6899   18.0171 N   0  0  0  0  0  0
   -1.8288   25.5896   17.8076 C   0  0  0  0  0  0
   -6.0555   20.9930   18.6844 C   0  0  0  0  0  0
   -5.1284   19.8860   18.9082 C   0  0  0  0  0  0
   -3.7190   20.1828   18.9635 C   0  0  0  0  0  0
   -3.2318   21.5148   18.8041 C   0  0  0  0  0  0
   -4.1298   22.6107   18.5795 C   0  0  0  0  0  0
   -5.5373   22.3219   18.5255 C   0  0  0  0  0  0
   -5.5453   18.4965   19.0615 C   0  0  0  0  0  0
   -4.5543   17.6467   19.3941 N   0  0  0  0  0  0
   -4.7664   16.2417   19.6342 C   0  0  0  0  0  0
   -4.2225   15.9222   21.0436 C   0  0  0  0  0  0
   -4.0797   15.4314   18.4719 C   0  0  0  0  0  0
   -2.5942   15.8256   18.3755 C   0  0  0  0  0  0
   -1.7787   14.7650   18.6225 O   0  0  0  0  0  0
   -4.8068   15.5911   17.0607 C   0  0  0  0  0  0
   -3.0342   14.2800   15.6161 C   0  0  0  0  0  0
   -2.2010   14.1669   14.4203 C   0  0  0  0  0  0
   -2.2646   15.2266   13.4278 C   0  0  0  0  0  0
   -3.1266   16.3536   13.6176 C   0  0  0  0  0  0
   -3.9427   16.4550   14.8001 C   0  0  0  0  0  0
   -3.9183   15.4295   15.8171 C   0  0  0  0  0  0
   -1.3152   13.0185   14.2142 C   0  0  0  0  0  0
   -1.3484   11.9531   15.0199 N   0  0  0  0  0  0
   -0.4501   13.0346   13.1844 N   0  0  0  0  0  0
   -2.2188   16.9192   18.1297 O   0  0  0  0  0  0
   -6.7261   18.1268   18.9180 O   0  0  0  0  0  0
   -2.2821   13.4388   18.8011 C   0  0  0  0  0  0
   -2.1667   27.9479   17.8314 O   0  0  0  0  0  0
   -3.6402   18.0030   19.4773 H   0  0  0  0  0  0
   -1.9768   11.9282   15.7774 H   0  0  0  0  0  0
   -0.4151   13.8133   12.5831 H   0  0  0  0  0  0
    0.1482   12.2677   13.0320 H   0  0  0  0  0  0
   -2.9023   28.5791   17.7953 H   0  0  0  0  0  0
  1  2  1  0  0  0
  1  6  2  0  0  0
  2  3  1  0  0  0
  2 11  1  0  0  0
  3  4  2  0  0  0
  4  5  1  0  0  0
  5  6  1  0  0  0
  5 33  1  0  0  0
  7  8  2  0  0  0
  7 12  1  0  0  0
  8  9  1  0  0  0
  8 13  1  0  0  0
  9 10  2  0  0  0
 10 11  1  0  0  0
 11 12  2  0  0  0
 13 14  1  0  0  0
 13 31  2  0  0  0
 14 15  1  0  0  0
 14 34  1  0  0  0
 15 16  1  0  0  0
 15 17  1  0  0  0
 17 18  1  0  0  0
 17 20  1  0  0  0
 18 19  1  0  0  0
 18 30  2  0  0  0
 19 32  1  0  0  0
 20 26  1  0  0  0
 21 22  2  0  0  0
 21 26  1  0  0  0
 22 23  1  0  0  0
 22 27  1  0  0  0
 23 24  2  0  0  0
 24 25  1  0  0  0
 25 26  2  0  0  0
 27 28  2  0  0  0
 27 29  1  0  0  0
 28 35  1  0  0  0
 29 36  1  0  0  0
 29 37  1  0  0  0
 33 38  1  0  0  0
M  END
>  <CHROM.0>
-89.45760517,-28.84306729,-96.34433896,120.92201193,-49.73886412,-60.66992230
5.90050323,-80.80792622

>  <CHROM.1>
21.31818389,-14.19306199,-173.59826882,-124.31114050,55.42898560,117.56078217
152.08988246,6.21067928,51.21162037,8.30206341,-3.41665183,18.63658050,17.51107696
-1.73740639,-0.99420384,-3.06228668

>  <FORMUL>
      FXV    C25 H27 N4 O4 1+

>  <HET>
 FXV  A 401      33

>  <HETNAM>
     FXV METHYL-3-(4'-N-OXOPYRIDYLPHENOYL)-3-METHYL-2-(M-AMIDINO
   2 FXV BENZYL)-PROPIONATE

>  <HETSYN>
     FXV FXV673

>  <Name>
FXV.pdb

>  <RI>
0

>  <Rbt.Current_Directory>
/home/malgorzata/Desktop/rDOCK_IFD/test8/IFD

>  <Rbt.Executable>
rbdock ($Id: //depot/dev/client3/rdock/2013.1/src/exe/rbdock.cxx#4 $)

>  <Rbt.Library>
libRbt.so (2013.1, Build901 2013/11/27)

>  <Rbt.Parameter_File>
/home/malgorzata/Desktop/rDock_2013.1_src/data/scripts/hard_docking.prm

>  <Rbt.Receptor>
cavity.prm

>  <SCORE>
-9.9712

>  <SCORE.INTER>
-10.8097

>  <SCORE.INTER.CONST>
1

>  <SCORE.INTER.POLAR>
-0.971525

>  <SCORE.INTER.REPUL>
0.0614028

>  <SCORE.INTER.ROT>
9

>  <SCORE.INTER.VDW>
-22.2136

>  <SCORE.INTER.norm>
-0.327568

>  <SCORE.INTRA>
3.98879

>  <SCORE.INTRA.DIHEDRAL>
1.44518

>  <SCORE.INTRA.DIHEDRAL.0>
8.37942

>  <SCORE.INTRA.POLAR>
0

>  <SCORE.INTRA.POLAR.0>
0

>  <SCORE.INTRA.REPUL>
0

>  <SCORE.INTRA.REPUL.0>
0

>  <SCORE.INTRA.VDW>
3.2662

>  <SCORE.INTRA.VDW.0>
-0.0658046

>  <SCORE.INTRA.norm>
0.120872

>  <SCORE.RESTR>
0

>  <SCORE.RESTR.CAVITY>
0

>  <SCORE.RESTR.norm>
0

>  <SCORE.SYSTEM>
-3.15026

>  <SCORE.SYSTEM.CONST>
0

>  <SCORE.SYSTEM.DIHEDRAL>
3.30028

>  <SCORE.SYSTEM.POLAR>
-1.05595

>  <SCORE.SYSTEM.VDW>
-1.21018

>  <SCORE.SYSTEM.norm>
-0.0954625

>  <SCORE.heavy>
33

>  <SCORE.norm>
-0.302158

$$$$
FXV.pdb
  rDOCK(R)          3D
libRbt.so/2013.1/901 2013/11/27
 38 40  0  0  0  0  0  0  0  0999 V2000
    6.2525   20.9575   14.2534 C   0  0  0  0  0  0
    5.0332   20.2267   14.0626 C   0  0  0  0  0  0
    4.3386   20.3884   12.8090 C   0  0  0  0  0  0
    4.8655   21.2589   11.7991 C   0  0  0  0  0  0
    6.0333   21.9543   11.9943 N   0  0  0  0  0  0
    6.7122   21.8041   13.2009 C   0  0  0  0  0  0
    3.7041   17.0450   15.8565 C   0  0  0  0  0  0
    3.5296   17.5294   17.2239 C   0  0  0  0  0  0
    3.8527   18.9064   17.5017 C   0  0  0  0  0  0
    4.3314   19.7796   16.4794 C   0  0  0  0  0  0
    4.5117   19.3168   15.1335 C   0  0  0  0  0  0
    4.1890   17.9449   14.8491 C   0  0  0  0  0  0
    3.0641   16.6960   18.3270 C   0  0  0  0  0  0
    2.6010   15.4855   17.9592 N   0  0  0  0  0  0
    2.1365   14.4984   18.9008 C   0  0  0  0  0  0
    2.9538   13.2094   18.6663 C   0  0  0  0  0  0
    0.5826   14.3276   18.7131 C   0  0  0  0  0  0
    0.2944   13.7069   17.3335 C   0  0  0  0  0  0
   -0.9259   13.1063   17.3007 O   0  0  0  0  0  0
   -0.2414   15.6786   18.9160 C   0  0  0  0  0  0
    0.9175   15.9785   21.2644 C   0  0  0  0  0  0
    1.2193   16.7951   22.4389 C   0  0  0  0  0  0
    0.6906   18.1474   22.4978 C   0  0  0  0  0  0
   -0.1054   18.6674   21.4276 C   0  0  0  0  0  0
   -0.3971   17.8537   20.2755 C   0  0  0  0  0  0
    0.1042   16.5034   20.1660 C   0  0  0  0  0  0
    2.0329   16.2747   23.5403 C   0  0  0  0  0  0
    2.4675   17.0651   24.5261 N   0  0  0  0  0  0
    2.3459   14.9668   23.5628 N   0  0  0  0  0  0
    1.0510   13.7418   16.4259 O   0  0  0  0  0  0
    3.1101   17.0636   19.5162 O   0  0  0  0  0  0
   -1.4344   12.4718   16.1247 C   0  0  0  0  0  0
    6.5354   22.7828   11.0359 O   0  0  0  0  0  0
    2.5789   15.2643   17.0001 H   0  0  0  0  0  0
    2.2457   18.0242   24.5220 H   0  0  0  0  0  0
    2.0322   14.3732   22.8427 H   0  0  0  0  0  0
    2.8887   14.6031   24.2993 H   0  0  0  0  0  0
    7.3840   23.1457   11.3345 H   0  0  0  0  0  0
  1  2  1  0  0  0
  1  6  2  0  0  0
  2  3  1  0  0  0
  2 11  1  0  0  0
  3  4  2  0  0  0
  4  5  1  0  0  0
  5  6  1  0  0  0
  5 33  1  0  0  0
  7  8  2  0  0  0
  7 12  1  0  0  0
  8  9  1  0  0  0
  8 13  1  0  0  0
  9 10  2  0  0  0
 10 11  1  0  0  0
 11 12  2  0  0  0
 13 14  1  0  0  0
 13 31  2  0  0  0
 14 15  1  0  0  0
 14 34  1  0  0  0
 15 16  1  0  0  0
 15 17  1  0  0  0
 17 18  1  0  0  0
 17 20  1  0  0  0
 18 19  1  0  0  0
 18 30  2  0  0  0
 19 32  1  0  0  0
 20 26  1  0  0  0
 21 22  2  0  0  0
 21 26  1  0  0  0
 22 23  1  0  0  0
 22 27  1  0  0  0
 23 24  2  0  0  0
 24 25  1  0  0  0
 25 26  2  0  0  0
 27 28  2  0  0  0
 27 29  1  0  0  0
 28 35  1  0  0  0
 29 36  1  0  0  0
 29 37  1  0  0  0
 33 38  1  0  0  0
M  END
>  <CHROM.0>
-92.23176528,-29.17449013,-116.81501131,135.50911291,63.54294108,-60.66992230
-0.95454158,101.90016953

>  <CHROM.1>
52.62065146,-176.99838176,-9.92966449,-123.84015838,66.65325974,158.06566056
-47.47620751,179.12067625,-12.81125394,170.61252481,2.61277625,17.28315608
17.67486590,-0.64282584,0.99590861,1.35294063

>  <FORMUL>
      FXV    C25 H27 N4 O4 1+

>  <HET>
 FXV  A 401      33

>  <HETNAM>
     FXV METHYL-3-(4'-N-OXOPYRIDYLPHENOYL)-3-METHYL-2-(M-AMIDINO
   2 FXV BENZYL)-PROPIONATE

>  <HETSYN>
     FXV FXV673

>  <Name>
FXV.pdb

>  <RI>
0

>  <Rbt.Current_Directory>
/home/malgorzata/Desktop/rDOCK_IFD/test8/IFD

>  <Rbt.Executable>
rbdock ($Id: //depot/dev/client3/rdock/2013.1/src/exe/rbdock.cxx#4 $)

>  <Rbt.Library>
libRbt.so (2013.1, Build901 2013/11/27)

>  <Rbt.Parameter_File>
/home/malgorzata/Desktop/rDock_2013.1_src/data/scripts/hard_docking.prm

>  <Rbt.Receptor>
cavity.prm

>  <SCORE>
-18.2068

>  <SCORE.INTER>
-10.1173

>  <SCORE.INTER.CONST>
1

>  <SCORE.INTER.POLAR>
-0.958414

>  <SCORE.INTER.REPUL>
0

>  <SCORE.INTER.ROT>
9

>  <SCORE.INTER.VDW>
-21.2587

>  <SCORE.INTER.norm>
-0.306586

>  <SCORE.INTRA>
-2.48812

>  <SCORE.INTRA.DIHEDRAL>
-2.89188

>  <SCORE.INTRA.DIHEDRAL.0>
8.37942

>  <SCORE.INTRA.POLAR>
-0.00839028

>  <SCORE.INTRA.POLAR.0>
0

>  <SCORE.INTRA.REPUL>
0

>  <SCORE.INTRA.REPUL.0>
0

>  <SCORE.INTRA.VDW>
-1.01365

>  <SCORE.INTRA.VDW.0>
-0.0658046

>  <SCORE.INTRA.norm>
-0.0753976

>  <SCORE.RESTR>
0

>  <SCORE.RESTR.CAVITY>
0

>  <SCORE.RESTR.norm>
0

>  <SCORE.SYSTEM>
-5.60137

>  <SCORE.SYSTEM.CONST>
0

>  <SCORE.SYSTEM.DIHEDRAL>
2.82457

>  <SCORE.SYSTEM.POLAR>
-1.08596

>  <SCORE.SYSTEM.VDW>
-3.32141

>  <SCORE.SYSTEM.norm>
-0.169739

>  <SCORE.heavy>
33

>  <SCORE.norm>
-0.551722

$$$$
FXV.pdb
  rDOCK(R)          3D
libRbt.so/2013.1/901 2013/11/27
 38 40  0  0  0  0  0  0  0  0999 V2000
    5.8906   20.2066   15.0029 C   0  0  0  0  0  0
    4.4808   20.4564   15.0892 C   0  0  0  0  0  0
    3.8974   21.3684   14.1364 C   0  0  0  0  0  0
    4.7184   21.9972   13.1434 C   0  0  0  0  0  0
    6.0674   21.7510   13.0718 N   0  0  0  0  0  0
    6.6401   20.8709   13.9866 C   0  0  0  0  0  0
    1.7765   18.2056   16.7410 C   0  0  0  0  0  0
    2.0411   18.4221   18.1616 C   0  0  0  0  0  0
    3.1088   19.3205   18.5231 C   0  0  0  0  0  0
    3.8921   19.9832   17.5311 C   0  0  0  0  0  0
    3.6466   19.7770   16.1328 C   0  0  0  0  0  0
    2.5814   18.8839   15.7654 C   0  0  0  0  0  0
    1.2990   17.7687   19.2342 C   0  0  0  0  0  0
    1.9896   17.6132   20.3805 N   0  0  0  0  0  0
    1.4230   17.0310   21.5708 C   0  0  0  0  0  0
    2.5292   17.0023   22.6478 C   0  0  0  0  0  0
    0.8379   15.6171   21.2003 C   0  0  0  0  0  0
    0.1539   15.0017   22.4351 C   0  0  0  0  0  0
   -0.4496   13.8198   22.1352 O   0  0  0  0  0  0
    1.9176   14.6158   20.5859 C   0  0  0  0  0  0
    2.2081   12.4076   19.1762 C   0  0  0  0  0  0
    1.6481   11.3582   18.3262 C   0  0  0  0  0  0
    0.2330   11.4116   17.9996 C   0  0  0  0  0  0
   -0.5928   12.4674   18.5023 C   0  0  0  0  0  0
   -0.0302   13.4965   19.3384 C   0  0  0  0  0  0
    1.3697   13.4904   19.6940 C   0  0  0  0  0  0
    2.4826   10.2724   17.8060 C   0  0  0  0  0  0
    3.8158   10.3120   17.8856 N   0  0  0  0  0  0
    1.8914    9.2058   17.2387 N   0  0  0  0  0  0
    0.1480   15.5072   23.5036 O   0  0  0  0  0  0
    0.1150   17.4027   19.1096 O   0  0  0  0  0  0
   -1.1699   13.0603   23.1091 C   0  0  0  0  0  0
    6.8495   22.3482   12.1292 O   0  0  0  0  0  0
    2.9274   17.9119   20.4063 H   0  0  0  0  0  0
    4.2614   11.0867   18.2984 H   0  0  0  0  0  0
    0.9099    9.1637   17.1736 H   0  0  0  0  0  0
    2.4401    8.4671   16.8886 H   0  0  0  0  0  0
    6.3270   23.0072   11.6459 H   0  0  0  0  0  0
  1  2  1  0  0  0
  1  6  2  0  0  0
  2  3  1  0  0  0
  2 11  1  0  0  0
  3  4  2  0  0  0
  4  5  1  0  0  0
  5  6  1  0  0  0
  5 33  1  0  0  0
  7  8  2  0  0  0
  7 12  1  0  0  0
  8  9  1  0  0  0
  8 13  1  0  0  0
  9 10  2  0  0  0
 10 11  1  0  0  0
 11 12  2  0  0  0
 13 14  1  0  0  0
 13 31  2  0  0  0
 14 15  1  0  0  0
 14 34  1  0  0  0
 15 16  1  0  0  0
 15 17  1  0  0  0
 17 18  1  0  0  0
 17 20  1  0  0  0
 18 19  1  0  0  0
 18 30  2  0  0  0
 19 32  1  0  0  0
 20 26  1  0  0  0
 21 22  2  0  0  0
 21 26  1  0  0  0
 22 23  1  0  0  0
 22 27  1  0  0  0
 23 24  2  0  0  0
 24 25  1  0  0  0
 25 26  2  0  0  0
 27 28  2  0  0  0
 27 29  1  0  0  0
 28 35  1  0  0  0
 29 36  1  0  0  0
 29 37  1  0  0  0
 33 38  1  0  0  0
M  END
>  <CHROM.0>
-91.79856423,-23.94393843,-75.67228950,-82.85177354,65.39220911,-60.66992230
-176.86129247,-89.30833909

>  <CHROM.1>
61.69635869,6.88109399,152.68377962,178.85944281,-176.83791186,175.63984848
-155.75343846,-179.10372631,-173.10321290,-11.77430977,2.34143579,16.42015487
18.26068124,-0.60905004,-1.07303996,-2.88124491

>  <FORMUL>
      FXV    C25 H27 N4 O4 1+

>  <HET>
 FXV  A 401      33

>  <HETNAM>
     FXV METHYL-3-(4'-N-OXOPYRIDYLPHENOYL)-3-METHYL-2-(M-AMIDINO
   2 FXV BENZYL)-PROPIONATE

>  <HETSYN>
     FXV FXV673

>  <Name>
FXV.pdb

>  <RI>
0

>  <Rbt.Current_Directory>
/home/malgorzata/Desktop/rDOCK_IFD/test8/IFD

>  <Rbt.Executable>
rbdock ($Id: //depot/dev/client3/rdock/2013.1/src/exe/rbdock.cxx#4 $)

>  <Rbt.Library>
libRbt.so (2013.1, Build901 2013/11/27)

>  <Rbt.Parameter_File>
/home/malgorzata/Desktop/rDock_2013.1_src/data/scripts/hard_docking.prm

>  <Rbt.Receptor>
cavity.prm

>  <SCORE>
-8.353

>  <SCORE.INTER>
-6.80881

>  <SCORE.INTER.CONST>
1

>  <SCORE.INTER.POLAR>
0

>  <SCORE.INTER.REPUL>
0

>  <SCORE.INTER.ROT>
9

>  <SCORE.INTER.VDW>
-21.2088

>  <SCORE.INTER.norm>
-0.206327

>  <SCORE.INTRA>
1.83959

>  <SCORE.INTRA.DIHEDRAL>
0.165082

>  <SCORE.INTRA.DIHEDRAL.0>
8.37942

>  <SCORE.INTRA.POLAR>
0

>  <SCORE.INTRA.POLAR.0>
0

>  <SCORE.INTRA.REPUL>
0

>  <SCORE.INTRA.REPUL.0>
0

>  <SCORE.INTRA.VDW>
1.75704

>  <SCORE.INTRA.VDW.0>
-0.0658046

>  <SCORE.INTRA.norm>
0.055745

>  <SCORE.RESTR>
1.78875

>  <SCORE.RESTR.CAVITY>
1.78875

>  <SCORE.RESTR.norm>
0.0542045

>  <SCORE.SYSTEM>
-5.17253

>  <SCORE.SYSTEM.CONST>
0

>  <SCORE.SYSTEM.DIHEDRAL>
2.57756

>  <SCORE.SYSTEM.POLAR>
-1.01468

>  <SCORE.SYSTEM.VDW>
-3.0114

>  <SCORE.SYSTEM.norm>
-0.156743

>  <SCORE.heavy>
33

>  <SCORE.norm>
-0.253121

$$$$
FXV.pdb
  rDOCK(R)          3D
libRbt.so/2013.1/901 2013/11/27
 38 40  0  0  0  0  0  0  0  0999 V2000
    4.1346   21.2490   13.6027 C   0  0  0  0  0  0
    4.8510   20.0519   13.9356 C   0  0  0  0  0  0
    6.1182   19.8213   13.2866 C   0  0  0  0  0  0
    6.6272   20.7698   12.3397 C   0  0  0  0  0  0
    5.9311   21.9117   12.0284 N   0  0  0  0  0  0
    4.7071   22.1442   12.6505 C   0  0  0  0  0  0
    3.6581   18.5305   17.3075 C   0  0  0  0  0  0
    3.1867   17.2134   16.8857 C   0  0  0  0  0  0
    3.2908   16.8714   15.4893 C   0  0  0  0  0  0
    3.8349   17.7851   14.5376 C   0  0  0  0  0  0
    4.2976   19.0831   14.9365 C   0  0  0  0  0  0
    4.1989   19.4297   16.3284 C   0  0  0  0  0  0
    2.6014   16.2320   17.7925 C   0  0  0  0  0  0
    2.5130   16.6355   19.0749 N   0  0  0  0  0  0
    1.9262   15.8314   20.1169 C   0  0  0  0  0  0
    0.6391   16.5437   20.5865 C   0  0  0  0  0  0
    3.0032   15.6210   21.2460 C   0  0  0  0  0  0
    3.2504   16.9530   21.9782 C   0  0  0  0  0  0
    3.0122   16.8412   23.3130 O   0  0  0  0  0  0
    4.3728   14.9951   20.7188 C   0  0  0  0  0  0
    2.9774   13.0537   19.6089 C   0  0  0  0  0  0
    2.9076   11.8469   18.7867 C   0  0  0  0  0  0
    4.1381   11.3229   18.2181 C   0  0  0  0  0  0
    5.3890   11.9768   18.4567 C   0  0  0  0  0  0
    5.4460   13.1649   19.2690 C   0  0  0  0  0  0
    4.2530   13.7280   19.8572 C   0  0  0  0  0  0
    1.6337   11.1688   18.5349 C   0  0  0  0  0  0
    0.4746   11.6666   18.9753 N   0  0  0  0  0  0
    1.6303   10.0186   17.8378 N   0  0  0  0  0  0
    3.5920   17.9469   21.4374 O   0  0  0  0  0  0
    2.1957   15.1181   17.4104 O   0  0  0  0  0  0
    2.2659   15.7552   23.8681 C   0  0  0  0  0  0
    6.4129   22.8141   11.1281 O   0  0  0  0  0  0
    2.8666   17.5233   19.3118 H   0  0  0  0  0  0
    0.4627   12.5077   19.4867 H   0  0  0  0  0  0
    2.4772    9.6406   17.5074 H   0  0  0  0  0  0
    0.7808    9.5545   17.6578 H   0  0  0  0  0  0
    7.2541   22.4931   10.7672 H   0  0  0  0  0  0
  1  2  1  0  0  0
  1  6  2  0  0  0
  2  3  1  0  0  0
  2 11  1  0  0  0
  3  4  2  0  0  0
  4  5  1  0  0  0
  5  6  1  0  0  0
  5 33  1  0  0  0
  7  8  2  0  0  0
  7 12  1  0  0  0
  8  9  1  0  0  0
  8 13  1  0  0  0
  9 10  2  0  0  0
 10 11  1  0  0  0
 11 12  2  0  0  0
 13 14  1  0  0  0
 13 31  2  0  0  0
 14 15  1  0  0  0
 14 34  1  0  0  0
 15 16  1  0  0  0
 15 17  1  0  0  0
 17 18  1  0  0  0
 17 20  1  0  0  0
 18 19  1  0  0  0
 18 30  2  0  0  0
 19 32  1  0  0  0
 20 26  1  0  0  0
 21 22  2  0  0  0
 21 26  1  0  0  0
 22 23  1  0  0  0
 22 27  1  0  0  0
 23 24  2  0  0  0
 24 25  1  0  0  0
 25 26  2  0  0  0
 27 28  2  0  0  0
 27 29  1  0  0  0
 28 35  1  0  0  0
 29 36  1  0  0  0
 29 37  1  0  0  0
 33 38  1  0  0  0
M  END
>  <CHROM.0>
73.57999684,-30.99603929,-66.17350763,-83.79124289,63.39680776,-60.66992230
0.02307620,89.49188920

>  <CHROM.1>
111.13428406,1.80654084,0.50408209,-113.41519737,69.74324154,122.56300755
-50.43848490,-16.76930463,-4.76313276,4.14590289,3.59636383,16.51030177,17.66405594
0.23806923,1.31031371,0.55646144

>  <FORMUL>
      FXV    C25 H27 N4 O4 1+

>  <HET>
 FXV  A 401      33

>  <HETNAM>
     FXV METHYL-3-(4'-N-OXOPYRIDYLPHENOYL)-3-METHYL-2-(M-AMIDINO
   2 FXV BENZYL)-PROPIONATE

>  <HETSYN>
     FXV FXV673

>  <Name>
FXV.pdb

>  <RI>
0

>  <Rbt.Current_Directory>
/home/malgorzata/Desktop/rDOCK_IFD/test8/IFD

>  <Rbt.Executable>
rbdock ($Id: //depot/dev/client3/rdock/2013.1/src/exe/rbdock.cxx#4 $)

>  <Rbt.Library>
libRbt.so (2013.1, Build901 2013/11/27)

>  <Rbt.Parameter_File>
/home/malgorzata/Desktop/rDock_2013.1_src/data/scripts/hard_docking.prm

>  <Rbt.Receptor>
cavity.prm

>  <SCORE>
-10.0083

>  <SCORE.INTER>
-7.4016

>  <SCORE.INTER.CONST>
1

>  <SCORE.INTER.POLAR>
0

>  <SCORE.INTER.REPUL>
0.161535

>  <SCORE.INTER.ROT>
9

>  <SCORE.INTER.VDW>
-22.6093

>  <SCORE.INTER.norm>
-0.224291

>  <SCORE.INTRA>
2.08097

>  <SCORE.INTRA.DIHEDRAL>
0.831354

>  <SCORE.INTRA.DIHEDRAL.0>
8.37942

>  <SCORE.INTRA.POLAR>
0

>  <SCORE.INTRA.POLAR.0>
0

>  <SCORE.INTRA.REPUL>
0

>  <SCORE.INTRA.REPUL.0>
0

>  <SCORE.INTRA.VDW>
1.6653

>  <SCORE.INTRA.VDW.0>
-0.0658046

>  <SCORE.INTRA.norm>
0.0630598

>  <SCORE.RESTR>
0.401948

>  <SCORE.RESTR.CAVITY>
0.401948

>  <SCORE.RESTR.norm>
0.0121802

>  <SCORE.SYSTEM>
-5.08963

>  <SCORE.SYSTEM.CONST>
0

>  <SCORE.SYSTEM.DIHEDRAL>
2.92197

>  <SCORE.SYSTEM.POLAR>
-1.10482

>  <SCORE.SYSTEM.VDW>
-2.79424

>  <SCORE.SYSTEM.norm>
-0.154231

>  <SCORE.heavy>
33

>  <SCORE.norm>
-0.303282

$$$$
FXV.pdb
  rDOCK(R)          3D
libRbt.so/2013.1/901 2013/11/27
 38 40  0  0  0  0  0  0  0  0999 V2000
   -4.0210   26.4850   18.2691 C   0  0  0  0  0  0
   -4.8571   25.4244   18.7518 C   0  0  0  0  0  0
   -6.1571   25.7726   19.2703 C   0  0  0  0  0  0
   -6.5807   27.1420   19.2958 C   0  0  0  0  0  0
   -5.7703   28.1488   18.8319 N   0  0  0  0  0  0
   -4.5136   27.8228   18.3282 C   0  0  0  0  0  0
   -4.2515   21.7191   19.7578 C   0  0  0  0  0  0
   -3.5153   21.2164   18.6001 C   0  0  0  0  0  0
   -3.2362   22.1337   17.5237 C   0  0  0  0  0  0
   -3.6631   23.4945   17.5758 C   0  0  0  0  0  0
   -4.3904   24.0008   18.7038 C   0  0  0  0  0  0
   -4.6700   23.0917   19.7821 C   0  0  0  0  0  0
   -3.0618   19.8367   18.4631 C   0  0  0  0  0  0
   -3.5380   18.9938   19.4000 N   0  0  0  0  0  0
   -3.2443   17.5831   19.4154 C   0  0  0  0  0  0
   -4.5724   16.8279   19.1908 C   0  0  0  0  0  0
   -2.5227   17.2423   20.7727 C   0  0  0  0  0  0
   -1.9987   15.7948   20.7294 C   0  0  0  0  0  0
   -1.2473   15.5024   21.8253 O   0  0  0  0  0  0
   -3.4314   17.4834   22.0617 C   0  0  0  0  0  0
   -4.0448   20.0081   22.5065 C   0  0  0  0  0  0
   -3.8216   21.2647   23.2195 C   0  0  0  0  0  0
   -2.7702   21.3164   24.2214 C   0  0  0  0  0  0
   -1.9739   20.1609   24.5042 C   0  0  0  0  0  0
   -2.2021   18.9282   23.7951 C   0  0  0  0  0  0
   -3.2345   18.8222   22.7904 C   0  0  0  0  0  0
   -4.6300   22.4538   22.9395 C   0  0  0  0  0  0
   -4.1818   23.6849   23.2023 N   0  0  0  0  0  0
   -5.8523   22.3029   22.3991 N   0  0  0  0  0  0
   -2.2165   15.0430   19.8437 O   0  0  0  0  0  0
   -2.3118   19.4614   17.5422 O   0  0  0  0  0  0
   -0.6624   14.2138   22.0295 C   0  0  0  0  0  0
   -6.1708   29.4511   18.8560 O   0  0  0  0  0  0
   -4.1151   19.3596   20.1090 H   0  0  0  0  0  0
   -3.2890   23.8097   23.5978 H   0  0  0  0  0  0
   -6.1949   21.4015   22.2005 H   0  0  0  0  0  0
   -6.4046   23.0938   22.2021 H   0  0  0  0  0  0
   -5.3928   30.0293   18.8197 H   0  0  0  0  0  0
  1  2  1  0  0  0
  1  6  2  0  0  0
  2  3  1  0  0  0
  2 11  1  0  0  0
  3  4  2  0  0  0
  4  5  1  0  0  0
  5  6  1  0  0  0
  5 33  1  0  0  0
  7  8  2  0  0  0
  7 12  1  0  0  0
  8  9  1  0  0  0
  8 13  1  0  0  0
  9 10  2  0  0  0
 10 11  1  0  0  0
 11 12  2  0  0  0
 13 14  1  0  0  0
 13 31  2  0  0  0
 14 15  1  0  0  0
 14 34  1  0  0  0
 15 16  1  0  0  0
 15 17  1  0  0  0
 17 18  1  0  0  0
 17 20  1  0  0  0
 18 19  1  0  0  0
 18 30  2  0  0  0
 19 32  1  0  0  0
 20 26  1  0  0  0
 21 22  2  0  0  0
 21 26  1  0  0  0
 22 23  1  0  0  0
 22 27  1  0  0  0
 23 24  2  0  0  0
 24 25  1  0  0  0
 25 26  2  0  0  0
 27 28  2  0  0  0
 27 29  1  0  0  0
 28 35  1  0  0  0
 29 36  1  0  0  0
 29 37  1  0  0  0
 33 38  1  0  0  0
M  END
>  <CHROM.0>
74.62677565,-29.68845495,34.46579330,-83.15684110,-177.56559212,-60.66992230
-10.25827328,-114.76777553

>  <CHROM.1>
-39.99358821,158.63043913,9.21362582,-115.50635116,-171.17348899,173.62153032
-97.06519303,179.08271500,93.13992664,-156.36625818,-3.73429114,21.25466371
20.42697003,-2.95226345,-1.28095065,1.55044387

>  <FORMUL>
      FXV    C25 H27 N4 O4 1+

>  <HET>
 FXV  A 401      33

>  <HETNAM>
     FXV METHYL-3-(4'-N-OXOPYRIDYLPHENOYL)-3-METHYL-2-(M-AMIDINO
   2 FXV BENZYL)-PROPIONATE

>  <HETSYN>
     FXV FXV673

>  <Name>
FXV.pdb

>  <RI>
0

>  <Rbt.Current_Directory>
/home/malgorzata/Desktop/rDOCK_IFD/test8/IFD

>  <Rbt.Executable>
rbdock ($Id: //depot/dev/client3/rdock/2013.1/src/exe/rbdock.cxx#4 $)

>  <Rbt.Library>
libRbt.so (2013.1, Build901 2013/11/27)

>  <Rbt.Parameter_File>
/home/malgorzata/Desktop/rDock_2013.1_src/data/scripts/hard_docking.prm

>  <Rbt.Receptor>
cavity.prm

>  <SCORE>
-15.977

>  <SCORE.INTER>
-10.3847

>  <SCORE.INTER.CONST>
1

>  <SCORE.INTER.POLAR>
-1.51661

>  <SCORE.INTER.REPUL>
0

>  <SCORE.INTER.ROT>
9

>  <SCORE.INTER.VDW>
-19.6283

>  <SCORE.INTER.norm>
-0.314689

>  <SCORE.INTRA>
-0.689691

>  <SCORE.INTRA.DIHEDRAL>
1.62696

>  <SCORE.INTRA.DIHEDRAL.0>
8.37942

>  <SCORE.INTRA.POLAR>
0

>  <SCORE.INTRA.POLAR.0>
0

>  <SCORE.INTRA.REPUL>
0

>  <SCORE.INTRA.REPUL.0>
0

>  <SCORE.INTRA.VDW>
-1.50317

>  <SCORE.INTRA.VDW.0>
-0.0658046

>  <SCORE.INTRA.norm>
-0.0208997

>  <SCORE.RESTR>
0.299755

>  <SCORE.RESTR.CAVITY>
0.299755

>  <SCORE.RESTR.norm>
0.00908349

>  <SCORE.SYSTEM>
-5.20232

>  <SCORE.SYSTEM.CONST>
0

>  <SCORE.SYSTEM.DIHEDRAL>
2.94802

>  <SCORE.SYSTEM.POLAR>
-1.07915

>  <SCORE.SYSTEM.REPUL>
0.00636762

>  <SCORE.SYSTEM.VDW>
-3.03906

>  <SCORE.SYSTEM.norm>
-0.157646

>  <SCORE.heavy>
33

>  <SCORE.norm>
-0.484152

$$$$
FXV.pdb
  rDOCK(R)          3D
libRbt.so/2013.1/901 2013/11/27
 38 40  0  0  0  0  0  0  0  0999 V2000
   -2.9020   21.7992   18.3504 C   0  0  0  0  0  0
   -4.0058   20.9467   18.0158 C   0  0  0  0  0  0
   -5.3389   21.4677   18.1930 C   0  0  0  0  0  0
   -5.5334   22.7978   18.6916 C   0  0  0  0  0  0
   -4.4684   23.6039   19.0098 N   0  0  0  0  0  0
   -3.1771   23.1105   18.8410 C   0  0  0  0  0  0
   -3.8482   17.0684   17.8109 C   0  0  0  0  0  0
   -3.3497   16.8655   16.4525 C   0  0  0  0  0  0
   -3.0731   18.0310   15.6508 C   0  0  0  0  0  0
   -3.2779   19.3492   16.1580 C   0  0  0  0  0  0
   -3.7709   19.5636   17.4880 C   0  0  0  0  0  0
   -4.0466   18.4052   18.2939 C   0  0  0  0  0  0
   -3.1324   15.5524   15.8553 C   0  0  0  0  0  0
   -3.5201   14.5155   16.6232 N   0  0  0  0  0  0
   -3.4306   13.1415   16.1982 C   0  0  0  0  0  0
   -4.8565   12.5495   16.2310 C   0  0  0  0  0  0
   -2.3968   12.4020   17.1273 C   0  0  0  0  0  0
   -2.6511   12.7918   18.5953 C   0  0  0  0  0  0
   -3.9810   12.8245   18.8805 O   0  0  0  0  0  0
   -0.8742   12.6555   16.7236 C   0  0  0  0  0  0
   -0.7204   15.1053   17.6843 C   0  0  0  0  0  0
   -0.2841   16.4951   17.5604 C   0  0  0  0  0  0
    0.4462   16.8891   16.3674 C   0  0  0  0  0  0
    0.7334   15.9355   15.3391 C   0  0  0  0  0  0
    0.2980   14.5689   15.4713 C   0  0  0  0  0  0
   -0.4303   14.1244   16.6368 C   0  0  0  0  0  0
   -0.5713   17.4802   18.6059 C   0  0  0  0  0  0
   -1.0391   17.1165   19.8035 N   0  0  0  0  0  0
   -0.3534   18.7836   18.3558 N   0  0  0  0  0  0
   -1.7918   13.0422   19.3673 O   0  0  0  0  0  0
   -2.6473   15.4004   14.7182 O   0  0  0  0  0  0
   -4.4762   13.1538   20.1807 C   0  0  0  0  0  0
   -4.6512   24.8681   19.4844 O   0  0  0  0  0  0
   -3.8823   14.7059   17.5187 H   0  0  0  0  0  0
   -1.2030   16.1658   19.9999 H   0  0  0  0  0  0
   -0.0089   19.0655   17.4776 H   0  0  0  0  0  0
   -0.5384   19.4559   19.0508 H   0  0  0  0  0  0
   -3.8381   25.1715   19.9176 H   0  0  0  0  0  0
  1  2  1  0  0  0
  1  6  2  0  0  0
  2  3  1  0  0  0
  2 11  1  0  0  0
  3  4  2  0  0  0
  4  5  1  0  0  0
  5  6  1  0  0  0
  5 33  1  0  0  0
  7  8  2  0  0  0
  7 12  1  0  0  0
  8  9  1  0  0  0
  8 13  1  0  0  0
  9 10  2  0  0  0
 10 11  1  0  0  0
 11 12  2  0  0  0
 13 14  1  0  0  0
 13 31  2  0  0  0
 14 15  1  0  0  0
 14 34  1  0  0  0
 15 16  1  0  0  0
 15 17  1  0  0  0
 17 18  1  0  0  0
 17 20  1  0  0  0
 18 19  1  0  0  0
 18 30  2  0  0  0
 19 32  1  0  0  0
 20 26  1  0  0  0
 21 22  2  0  0  0
 21 26  1  0  0  0
 22 23  1  0  0  0
 22 27  1  0  0  0
 23 24  2  0  0  0
 24 25  1  0  0  0
 25 26  2  0  0  0
 27 28  2  0  0  0
 27 29  1  0  0  0
 28 35  1  0  0  0
 29 36  1  0  0  0
 29 37  1  0  0  0
 33 38  1  0  0  0
M  END
>  <CHROM.0>
-93.67272058,-30.05150319,33.22553564,-89.27319057,175.91546598,-60.66992230
-2.22780465,-89.74753040

>  <CHROM.1>
-72.30051298,161.63777581,4.57953916,-120.72426146,44.47359534,41.86245475
55.04532764,179.68599004,48.08784812,11.34281223,-2.66966570,17.02984249
17.58343068,-1.78921441,-0.38574101,-3.07271712

>  <FORMUL>
      FXV    C25 H27 N4 O4 1+

>  <HET>
 FXV  A 401      33

>  <HETNAM>
     FXV METHYL-3-(4'-N-OXOPYRIDYLPHENOYL)-3-METHYL-2-(M-AMIDINO
   2 FXV BENZYL)-PROPIONATE

>  <HETSYN>
     FXV FXV673

>  <Name>
FXV.pdb

>  <RI>
0

>  <Rbt.Current_Directory>
/home/malgorzata/Desktop/rDOCK_IFD/test8/IFD

>  <Rbt.Executable>
rbdock ($Id: //depot/dev/client3/rdock/2013.1/src/exe/rbdock.cxx#4 $)

>  <Rbt.Library>
libRbt.so (2013.1, Build901 2013/11/27)

>  <Rbt.Parameter_File>
/home/malgorzata/Desktop/rDock_2013.1_src/data/scripts/hard_docking.prm

>  <Rbt.Receptor>
cavity.prm

>  <SCORE>
-15.2567

>  <SCORE.INTER>
-3.22717

>  <SCORE.INTER.CONST>
1

>  <SCORE.INTER.POLAR>
-1.57513

>  <SCORE.INTER.REPUL>
0

>  <SCORE.INTER.ROT>
9

>  <SCORE.INTER.VDW>
-12.2717

>  <SCORE.INTER.norm>
-0.097793

>  <SCORE.INTRA>
-6.67474

>  <SCORE.INTRA.DIHEDRAL>
-2.76656

>  <SCORE.INTRA.DIHEDRAL.0>
8.37942

>  <SCORE.INTRA.POLAR>
-0.0776763

>  <SCORE.INTRA.POLAR.0>
0

>  <SCORE.INTRA.REPUL>
0

>  <SCORE.INTRA.REPUL.0>
0

>  <SCORE.INTRA.VDW>
-5.02736

>  <SCORE.INTRA.VDW.0>
-0.0658046

>  <SCORE.INTRA.norm>
-0.202265

>  <SCORE.RESTR>
0

>  <SCORE.RESTR.CAVITY>
0

>  <SCORE.RESTR.norm>
0

>  <SCORE.SYSTEM>
-5.35481

>  <SCORE.SYSTEM.CONST>
0

>  <SCORE.SYSTEM.DIHEDRAL>
2.91912

>  <SCORE.SYSTEM.POLAR>
-1.08376

>  <SCORE.SYSTEM.REPUL>
0.00793045

>  <SCORE.SYSTEM.VDW>
-3.16923

>  <SCORE.SYSTEM.norm>
-0.162267

>  <SCORE.heavy>
33

>  <SCORE.norm>
-0.462325

$$$$
FXV.pdb
  rDOCK(R)          3D
libRbt.so/2013.1/901 2013/11/27
 38 40  0  0  0  0  0  0  0  0999 V2000
   -2.9422   23.1156   17.7657 C   0  0  0  0  0  0
   -3.5058   21.9268   18.3369 C   0  0  0  0  0  0
   -4.7903   22.0326   18.9842 C   0  0  0  0  0  0
   -5.4652   23.2960   19.0462 C   0  0  0  0  0  0
   -4.9145   24.4274   18.4966 N   0  0  0  0  0  0
   -3.6751   24.3355   17.8683 C   0  0  0  0  0  0
   -1.0409   19.0294   19.1348 C   0  0  0  0  0  0
   -1.3888   18.0546   18.1034 C   0  0  0  0  0  0
   -2.4297   18.3998   17.1680 C   0  0  0  0  0  0
   -3.1085   19.6532   17.2387 C   0  0  0  0  0  0
   -2.7806   20.6181   18.2484 C   0  0  0  0  0  0
   -1.7415   20.2810   19.1832 C   0  0  0  0  0  0
   -0.7560   16.7464   17.9765 C   0  0  0  0  0  0
   -1.3862   15.8967   17.1423 N   0  0  0  0  0  0
   -0.8984   14.5733   16.8468 C   0  0  0  0  0  0
   -0.0286   14.6703   15.5746 C   0  0  0  0  0  0
   -2.1348   13.6070   16.7183 C   0  0  0  0  0  0
   -3.0520   14.0907   15.5797 C   0  0  0  0  0  0
   -3.5915   15.3088   15.8559 O   0  0  0  0  0  0
   -2.9539   13.4277   18.0757 C   0  0  0  0  0  0
   -3.9443   15.7810   18.7309 C   0  0  0  0  0  0
   -3.9873   16.9398   19.6211 C   0  0  0  0  0  0
   -3.1020   16.9624   20.7734 C   0  0  0  0  0  0
   -2.2106   15.8723   21.0306 C   0  0  0  0  0  0
   -2.1762   14.7359   20.1463 C   0  0  0  0  0  0
   -3.0354   14.6623   18.9876 C   0  0  0  0  0  0
   -4.8952   18.0614   19.3690 C   0  0  0  0  0  0
   -4.8769   19.1629   20.1252 N   0  0  0  0  0  0
   -5.7658   17.9828   18.3468 N   0  0  0  0  0  0
   -3.2649   13.4683   14.5977 O   0  0  0  0  0  0
    0.2945   16.4444   18.5738 O   0  0  0  0  0  0
   -4.5107   15.9558   14.9723 C   0  0  0  0  0  0
   -5.5541   25.6293   18.5552 O   0  0  0  0  0  0
   -2.2209   16.1945   16.7135 H   0  0  0  0  0  0
   -4.2447   19.2336   20.8766 H   0  0  0  0  0  0
   -5.7899   17.1770   17.7816 H   0  0  0  0  0  0
   -6.3789   18.7310   18.1636 H   0  0  0  0  0  0
   -6.4026   25.5220   19.0128 H   0  0  0  0  0  0
  1  2  1  0  0  0
  1  6  2  0  0  0
  2  3  1  0  0  0
  2 11  1  0  0  0
  3  4  2  0  0  0
  4  5  1  0  0  0
  5  6  1  0  0  0
  5 33  1  0  0  0
  7  8  2  0  0  0
  7 12  1  0  0  0
  8  9  1  0  0  0
  8 13  1  0  0  0
  9 10  2  0  0  0
 10 11  1  0  0  0
 11 12  2  0  0  0
 13 14  1  0  0  0
 13 31  2  0  0  0
 14 15  1  0  0  0
 14 34  1  0  0  0
 15 16  1  0  0  0
 15 17  1  0  0  0
 17 18  1  0  0  0
 17 20  1  0  0  0
 18 19  1  0  0  0
 18 30  2  0  0  0
 19 32  1  0  0  0
 20 26  1  0  0  0
 21 22  2  0  0  0
 21 26  1  0  0  0
 22 23  1  0  0  0
 22 27  1  0  0  0
 23 24  2  0  0  0
 24 25  1  0  0  0
 25 26  2  0  0  0
 27 28  2  0  0  0
 27 29  1  0  0  0
 28 35  1  0  0  0
 29 36  1  0  0  0
 29 37  1  0  0  0
 33 38  1  0  0  0
M  END
>  <CHROM.0>
71.76300945,-28.86809897,-117.72190315,-88.81593149,-176.52991062,-60.66992230
-177.13322014,-86.65719149

>  <CHROM.1>
-98.02126173,-0.66252315,167.48054947,-92.99052619,60.24410202,-64.46266301
34.39518984,-178.05817735,78.05052386,-175.40302413,-3.04783253,18.03409425
18.04457809,2.24136475,-1.16886344,0.80628978

>  <FORMUL>
      FXV    C25 H27 N4 O4 1+

>  <HET>
 FXV  A 401      33

>  <HETNAM>
     FXV METHYL-3-(4'-N-OXOPYRIDYLPHENOYL)-3-METHYL-2-(M-AMIDINO
   2 FXV BENZYL)-PROPIONATE

>  <HETSYN>
     FXV FXV673

>  <Name>
FXV.pdb

>  <RI>
0

>  <Rbt.Current_Directory>
/home/malgorzata/Desktop/rDOCK_IFD/test8/IFD

>  <Rbt.Executable>
rbdock ($Id: //depot/dev/client3/rdock/2013.1/src/exe/rbdock.cxx#4 $)

>  <Rbt.Library>
libRbt.so (2013.1, Build901 2013/11/27)

>  <Rbt.Parameter_File>
/home/malgorzata/Desktop/rDock_2013.1_src/data/scripts/hard_docking.prm

>  <Rbt.Receptor>
cavity.prm

>  <SCORE>
-16.4196

>  <SCORE.INTER>
-0.647991

>  <SCORE.INTER.CONST>
1

>  <SCORE.INTER.POLAR>
-0.543541

>  <SCORE.INTER.REPUL>
0

>  <SCORE.INTER.ROT>
9

>  <SCORE.INTER.VDW>
-13.2

>  <SCORE.INTER.norm>
-0.0196361

>  <SCORE.INTRA>
-10.0241

>  <SCORE.INTRA.DIHEDRAL>
-2.35268

>  <SCORE.INTRA.DIHEDRAL.0>
8.37942

>  <SCORE.INTRA.POLAR>
-0.668813

>  <SCORE.INTRA.POLAR.0>
0

>  <SCORE.INTRA.REPUL>
0

>  <SCORE.INTRA.REPUL.0>
0

>  <SCORE.INTRA.VDW>
-6.57377

>  <SCORE.INTRA.VDW.0>
-0.0658046

>  <SCORE.INTRA.norm>
-0.30376

>  <SCORE.RESTR>
0

>  <SCORE.RESTR.CAVITY>
0

>  <SCORE.RESTR.norm>
0

>  <SCORE.SYSTEM>
-5.74754

>  <SCORE.SYSTEM.CONST>
0

>  <SCORE.SYSTEM.DIHEDRAL>
2.78803

>  <SCORE.SYSTEM.POLAR>
-1.06958

>  <SCORE.SYSTEM.VDW>
-3.505

>  <SCORE.SYSTEM.norm>
-0.174168

>  <SCORE.heavy>
33

>  <SCORE.norm>
-0.497564

$$$$
