REMARK  5 active torsions:
REMARK  status: ('A' for Active; 'I' for Inactive)
REMARK    1  A    between atoms: C2_22137  and  C11_22146 
REMARK    2  A    between atoms: C3_22138  and  C4_22139 
REMARK    3  A    between atoms: C5_22140  and  N1_22152 
REMARK    4  A    between atoms: C8_22143  and  S1_22161 
REMARK    5  A    between atoms: N3_22154  and  S1_22161 
ROOT
HETATM    1  C1  S58 A 701      20.723  22.777  14.748  1.00  9.00     0.044 A 
HETATM    2  C2  S58 A 701      22.064  22.553  14.826  1.00  8.39     0.084 A 
HETATM    3  C3  S58 A 701      20.095  21.881  15.762  1.00  9.72     0.174 A 
HETATM    4  N1  S58 A 701      22.303  21.619  15.808  1.00 11.18    -0.230 N 
HETATM    5  N2  S58 A 701      21.048  21.234  16.375  1.00 11.04    -0.161 NA
ENDROOT
BRANCH   4   6
HETATM    6  C5  S58 A 701      23.481  21.326  16.445  1.00 11.70     0.083 A 
HETATM    7  C6  S58 A 701      24.020  20.049  16.245  1.00 10.08     0.020 A 
HETATM    8  C7  S58 A 701      25.239  19.725  16.820  1.00 13.76     0.014 A 
HETATM    9  C8  S58 A 701      25.923  20.688  17.597  1.00 13.58     0.103 A 
HETATM   10  C9  S58 A 701      25.380  21.968  17.795  1.00 15.22     0.014 A 
HETATM   11  C10 S58 A 701      24.149  22.287  17.217  1.00 14.22     0.020 A 
BRANCH   9  12
HETATM   12  S1  S58 A 701      27.534  20.276  18.345  1.00 11.93     0.258 S 
HETATM   13  O1  S58 A 701      28.422  21.383  18.179  1.00  9.06    -0.201 OA
HETATM   14  O2  S58 A 701      28.060  19.127  17.662  1.00 10.85    -0.201 OA
BRANCH  12  15
HETATM   15  N3  S58 A 701      27.255  19.905  20.038  1.00  8.29    -0.324 N 
HETATM   16 1HN3 S58 A 701      27.928  20.147  20.705  1.00 17.00     0.169 HD
HETATM   17 2HN3 S58 A 701      26.426  19.459  20.316  1.00 17.00     0.169 HD
ENDBRANCH  12  15
ENDBRANCH   9  12
ENDBRANCH   4   6
BRANCH   2  18
HETATM   18  C11 S58 A 701      23.084  23.199  13.944  1.00  5.71     0.018 A 
HETATM   19  C12 S58 A 701      24.435  22.772  14.008  1.00  5.31     0.002 A 
HETATM   20  C13 S58 A 701      25.376  23.260  13.083  1.00  2.00     0.007 A 
HETATM   21  C14 S58 A 701      24.979  24.160  12.098  1.00  2.00     0.035 A 
HETATM   22  C15 S58 A 701      23.655  24.609  12.048  1.00  2.25     0.007 A 
HETATM   23 BR1  S58 A 701      26.167  24.627  10.765  1.00  4.05    -0.049 Br
HETATM   24  C16 S58 A 701      22.699  24.126  12.973  1.00  2.30     0.002 A 
ENDBRANCH   2  18
BRANCH   3  25
HETATM   25  C4  S58 A 701      18.638  21.654  16.033  1.00  8.58     0.437 C 
HETATM   26  F1  S58 A 701      17.916  22.013  14.942  1.00  2.57    -0.164 F 
HETATM   27  F2  S58 A 701      18.264  22.340  17.124  1.00  8.03    -0.164 F 
HETATM   28  F3  S58 A 701      18.460  20.347  16.257  1.00 10.66    -0.164 F 
ENDBRANCH   3  25
TORSDOF 5
