REMARK  5 active torsions:
REMARK  status: ('A' for Active; 'I' for Inactive)
REMARK    1  A    between atoms: C2_22137  and  C11_22146 
REMARK    2  A    between atoms: C3_22138  and  C4_22139 
REMARK    3  A    between atoms: C5_22140  and  N1_22152 
REMARK    4  A    between atoms: C8_22143  and  S1_22161 
REMARK    5  A    between atoms: N3_22154  and  S1_22161 
ROOT
HETATM    1  C1  S58 A 701      20.762  22.802  14.634  1.00  9.00     0.044 A 
HETATM    2  C2  S58 A 701      22.079  22.472  14.744  1.00  8.39     0.084 A 
HETATM    3  C3  S58 A 701      20.042  21.976  15.645  1.00  9.72     0.174 A 
HETATM    4  N1  S58 A 701      22.220  21.536  15.743  1.00 11.18    -0.230 N 
HETATM    5  N2  S58 A 701      20.927  21.263  16.288  1.00 11.04    -0.161 NA
ENDROOT
BRANCH   4   6
HETATM    6  C5  S58 A 701      23.357  21.159  16.411  1.00 11.70     0.083 A 
HETATM    7  C6  S58 A 701      23.924  19.925  16.068  1.00 10.08     0.020 A 
HETATM    8  C7  S58 A 701      25.107  19.526  16.671  1.00 13.76     0.014 A 
HETATM    9  C8  S58 A 701      25.726  20.371  17.621  1.00 13.58     0.103 A 
HETATM   10  C9  S58 A 701      25.155  21.609  17.962  1.00 15.22     0.014 A 
HETATM   11  C10 S58 A 701      23.961  22.002  17.353  1.00 14.22     0.020 A 
BRANCH   9  12
HETATM   12  S1  S58 A 701      27.290  19.861  18.410  1.00 11.93     0.258 S 
HETATM   13  O1  S58 A 701      28.299  20.827  18.110  1.00  9.06    -0.201 OA
HETATM   14  O2  S58 A 701      27.664  18.585  17.868  1.00 10.85    -0.201 OA
BRANCH  12  15
HETATM   15  N3  S58 A 701      26.997  19.731  20.136  1.00  8.29    -0.324 N 
HETATM   16 1HN3 S58 A 701      26.212  19.245  20.459  1.00 17.00     0.169 HD
HETATM   17 2HN3 S58 A 701      27.619  20.141  20.774  1.00 17.00     0.169 HD
ENDBRANCH  12  15
ENDBRANCH   9  12
ENDBRANCH   4   6
BRANCH   2  18
HETATM   18  C11 S58 A 701      23.166  23.019  13.875  1.00  5.71     0.018 A 
HETATM   19  C12 S58 A 701      22.982  23.061  12.469  1.00  5.31     0.002 A 
HETATM   20  C13 S58 A 701      23.928  23.708  11.652  1.00  2.00     0.007 A 
HETATM   21  C14 S58 A 701      25.043  24.312  12.225  1.00  2.00     0.035 A 
HETATM   22  C15 S58 A 701      25.245  24.248  13.608  1.00  2.25     0.007 A 
HETATM   23 BR1  S58 A 701      26.160  25.338  11.172  1.00  4.05    -0.049 Br
HETATM   24  C16 S58 A 701      24.303  23.600  14.440  1.00  2.30     0.002 A 
ENDBRANCH   2  18
BRANCH   3  25
HETATM   25  C4  S58 A 701      18.567  21.871  15.888  1.00  8.58     0.437 C 
HETATM   26  F1  S58 A 701      18.280  22.346  17.127  1.00  2.57    -0.164 F 
HETATM   27  F2  S58 A 701      18.168  20.598  15.740  1.00  8.03    -0.164 F 
HETATM   28  F3  S58 A 701      17.945  22.633  14.981  1.00 10.66    -0.164 F 
ENDBRANCH   3  25
TORSDOF 5
