REMARK  5 active torsions:
REMARK  status: ('A' for Active; 'I' for Inactive)
REMARK    1  A    between atoms: C2_22137  and  C11_22146 
REMARK    2  A    between atoms: C3_22138  and  C4_22139 
REMARK    3  A    between atoms: C5_22140  and  N1_22152 
REMARK    4  A    between atoms: C8_22143  and  S1_22161 
REMARK    5  A    between atoms: N3_22154  and  S1_22161 
ROOT
HETATM    1  C1  S58 A 701      24.555  21.280  17.439  1.00  9.00     0.044 A 
HETATM    2  C2  S58 A 701      23.920  21.605  16.279  1.00  8.39     0.084 A 
HETATM    3  C3  S58 A 701      26.000  21.147  17.097  1.00  9.72     0.174 A 
HETATM    4  N1  S58 A 701      24.855  21.699  15.272  1.00 11.18    -0.230 N 
HETATM    5  N2  S58 A 701      26.142  21.417  15.828  1.00 11.04    -0.161 NA
ENDROOT
BRANCH   4   6
HETATM    6  C5  S58 A 701      24.736  22.296  14.044  1.00 11.70     0.083 A 
HETATM    7  C6  S58 A 701      25.429  23.497  13.844  1.00 10.08     0.020 A 
HETATM    8  C7  S58 A 701      25.389  24.109  12.600  1.00 13.76     0.014 A 
HETATM    9  C8  S58 A 701      24.652  23.511  11.551  1.00 13.58     0.103 A 
HETATM   10  C9  S58 A 701      23.959  22.306  11.755  1.00 15.22     0.014 A 
HETATM   11  C10 S58 A 701      24.000  21.698  13.012  1.00 14.22     0.020 A 
BRANCH   9  12
HETATM   12  S1  S58 A 701      24.605  24.301   9.908  1.00 11.93     0.258 S 
HETATM   13  O1  S58 A 701      25.786  23.946   9.187  1.00  9.06    -0.201 OA
HETATM   14  O2  S58 A 701      24.564  25.724  10.101  1.00 10.85    -0.201 OA
BRANCH  12  15
HETATM   15  N3  S58 A 701      23.149  23.753   9.096  1.00  8.29    -0.324 N 
HETATM   16 1HN3 S58 A 701      22.492  24.406   8.784  1.00 17.00     0.169 HD
HETATM   17 2HN3 S58 A 701      22.994  22.794   8.953  1.00 17.00     0.169 HD
ENDBRANCH  12  15
ENDBRANCH   9  12
ENDBRANCH   4   6
BRANCH   2  18
HETATM   18  C11 S58 A 701      22.442  21.780  16.141  1.00  5.71     0.018 A 
HETATM   19  C12 S58 A 701      21.934  22.838  15.345  1.00  5.31     0.002 A 
HETATM   20  C13 S58 A 701      20.555  22.927  15.083  1.00  2.00     0.007 A 
HETATM   21  C14 S58 A 701      19.687  21.970  15.602  1.00  2.00     0.035 A 
HETATM   22  C15 S58 A 701      20.177  20.941  16.413  1.00  2.25     0.007 A 
HETATM   23 BR1  S58 A 701      17.917  21.973  15.077  1.00  4.05    -0.049 Br
HETATM   24  C16 S58 A 701      21.562  20.842  16.684  1.00  2.30     0.002 A 
ENDBRANCH   2  18
BRANCH   3  25
HETATM   25  C4  S58 A 701      27.133  20.712  17.978  1.00  8.58     0.437 C 
HETATM   26  F1  S58 A 701      26.649  20.374  19.199  1.00  2.57    -0.164 F 
HETATM   27  F2  S58 A 701      28.050  21.689  18.059  1.00  8.03    -0.164 F 
HETATM   28  F3  S58 A 701      27.694  19.631  17.423  1.00 10.66    -0.164 F 
ENDBRANCH   3  25
TORSDOF 5
