REMARK  5 active torsions:
REMARK  status: ('A' for Active; 'I' for Inactive)
REMARK    1  A    between atoms: C2_22137  and  C11_22146 
REMARK    2  A    between atoms: C3_22138  and  C4_22139 
REMARK    3  A    between atoms: C5_22140  and  N1_22152 
REMARK    4  A    between atoms: C8_22143  and  S1_22161 
REMARK    5  A    between atoms: N3_22154  and  S1_22161 
ROOT
HETATM    1  C1  S58 A 701      24.611  20.885  17.574  1.00  9.00     0.044 A 
HETATM    2  C2  S58 A 701      24.034  21.308  16.415  1.00  8.39     0.084 A 
HETATM    3  C3  S58 A 701      26.055  20.674  17.265  1.00  9.72     0.174 A 
HETATM    4  N1  S58 A 701      25.003  21.390  15.441  1.00 11.18    -0.230 N 
HETATM    5  N2  S58 A 701      26.252  20.998  16.016  1.00 11.04    -0.161 NA
ENDROOT
BRANCH   4   6
HETATM    6  C5  S58 A 701      24.960  22.055  14.243  1.00 11.70     0.083 A 
HETATM    7  C6  S58 A 701      23.978  21.662  13.325  1.00 10.08     0.020 A 
HETATM    8  C7  S58 A 701      23.855  22.343  12.123  1.00 13.76     0.014 A 
HETATM    9  C8  S58 A 701      24.720  23.426  11.842  1.00 13.58     0.103 A 
HETATM   10  C9  S58 A 701      25.704  23.817  12.766  1.00 15.22     0.014 A 
HETATM   11  C10 S58 A 701      25.825  23.124  13.972  1.00 14.22     0.020 A 
BRANCH   9  12
HETATM   12  S1  S58 A 701      24.558  24.337  10.271  1.00 11.93     0.258 S 
HETATM   13  O1  S58 A 701      25.784  24.236   9.545  1.00  9.06    -0.201 OA
HETATM   14  O2  S58 A 701      24.290  25.713  10.582  1.00 10.85    -0.201 OA
BRANCH  12  15
HETATM   15  N3  S58 A 701      23.212  23.638   9.387  1.00  8.29    -0.324 N 
HETATM   16 1HN3 S58 A 701      22.504  24.217   9.044  1.00 17.00     0.169 HD
HETATM   17 2HN3 S58 A 701      23.171  22.669   9.236  1.00 17.00     0.169 HD
ENDBRANCH  12  15
ENDBRANCH   9  12
ENDBRANCH   4   6
BRANCH   2  18
HETATM   18  C11 S58 A 701      22.575  21.586  16.246  1.00  5.71     0.018 A 
HETATM   19  C12 S58 A 701      22.161  22.716  15.497  1.00  5.31     0.002 A 
HETATM   20  C13 S58 A 701      20.798  22.909  15.202  1.00  2.00     0.007 A 
HETATM   21  C14 S58 A 701      19.856  21.983  15.642  1.00  2.00     0.035 A 
HETATM   22  C15 S58 A 701      20.254  20.882  16.407  1.00  2.25     0.007 A 
HETATM   23 BR1  S58 A 701      18.107  22.130  15.069  1.00  4.05    -0.049 Br
HETATM   24  C16 S58 A 701      21.621  20.678  16.711  1.00  2.30     0.002 A 
ENDBRANCH   2  18
BRANCH   3  25
HETATM   25  C4  S58 A 701      27.130  20.123  18.153  1.00  8.58     0.437 C 
HETATM   26  F1  S58 A 701      28.043  21.093  18.410  1.00  2.57    -0.164 F 
HETATM   27  F2  S58 A 701      27.695  19.051  17.576  1.00  8.03    -0.164 F 
HETATM   28  F3  S58 A 701      26.562  19.750  19.305  1.00 10.66    -0.164 F 
ENDBRANCH   3  25
TORSDOF 5
