REMARK  5 active torsions:
REMARK  status: ('A' for Active; 'I' for Inactive)
REMARK    1  A    between atoms: C2_22137  and  C11_22146 
REMARK    2  A    between atoms: C3_22138  and  C4_22139 
REMARK    3  A    between atoms: C5_22140  and  N1_22152 
REMARK    4  A    between atoms: C8_22143  and  S1_22161 
REMARK    5  A    between atoms: N3_22154  and  S1_22161 
ROOT
HETATM    1  C1  S58 A 701      20.781  22.802  14.625  1.00  9.00     0.044 A 
HETATM    2  C2  S58 A 701      22.099  22.479  14.739  1.00  8.39     0.084 A 
HETATM    3  C3  S58 A 701      20.063  21.978  15.640  1.00  9.72     0.174 A 
HETATM    4  N1  S58 A 701      22.243  21.550  15.745  1.00 11.18    -0.230 N 
HETATM    5  N2  S58 A 701      20.950  21.274  16.289  1.00 11.04    -0.161 NA
ENDROOT
BRANCH   4   6
HETATM    6  C5  S58 A 701      23.380  21.182  16.416  1.00 11.70     0.083 A 
HETATM    7  C6  S58 A 701      23.903  19.911  16.147  1.00 10.08     0.020 A 
HETATM    8  C7  S58 A 701      25.085  19.516  16.756  1.00 13.76     0.014 A 
HETATM    9  C8  S58 A 701      25.747  20.402  17.636  1.00 13.58     0.103 A 
HETATM   10  C9  S58 A 701      25.221  21.677  17.903  1.00 15.22     0.014 A 
HETATM   11  C10 S58 A 701      24.028  22.067  17.290  1.00 14.22     0.020 A 
BRANCH   9  12
HETATM   12  S1  S58 A 701      27.309  19.898  18.431  1.00 11.93     0.258 S 
HETATM   13  O1  S58 A 701      28.316  20.868  18.137  1.00  9.06    -0.201 OA
HETATM   14  O2  S58 A 701      27.691  18.624  17.888  1.00 10.85    -0.201 OA
BRANCH  12  15
HETATM   15  N3  S58 A 701      27.010  19.762  20.155  1.00  8.29    -0.324 N 
HETATM   16 1HN3 S58 A 701      27.724  19.971  20.789  1.00 17.00     0.169 HD
HETATM   17 2HN3 S58 A 701      26.128  19.480  20.482  1.00 17.00     0.169 HD
ENDBRANCH  12  15
ENDBRANCH   9  12
ENDBRANCH   4   6
BRANCH   2  18
HETATM   18  C11 S58 A 701      23.184  23.025  13.869  1.00  5.71     0.018 A 
HETATM   19  C12 S58 A 701      23.013  23.036  12.461  1.00  5.31     0.002 A 
HETATM   20  C13 S58 A 701      23.955  23.681  11.638  1.00  2.00     0.007 A 
HETATM   21  C14 S58 A 701      25.055  24.315  12.209  1.00  2.00     0.035 A 
HETATM   22  C15 S58 A 701      25.247  24.282  13.595  1.00  2.25     0.007 A 
HETATM   23 BR1  S58 A 701      26.165  25.336  11.145  1.00  4.05    -0.049 Br
HETATM   24  C16 S58 A 701      24.307  23.635  14.432  1.00  2.30     0.002 A 
ENDBRANCH   2  18
BRANCH   3  25
HETATM   25  C4  S58 A 701      18.587  21.868  15.882  1.00  8.58     0.437 C 
HETATM   26  F1  S58 A 701      17.924  22.603  14.954  1.00  2.57    -0.164 F 
HETATM   27  F2  S58 A 701      18.297  22.266  17.130  1.00  8.03    -0.164 F 
HETATM   28  F3  S58 A 701      18.242  20.584  15.741  1.00 10.66    -0.164 F 
ENDBRANCH   3  25
TORSDOF 5
