REMARK  5 active torsions:
REMARK  status: ('A' for Active; 'I' for Inactive)
REMARK    1  A    between atoms: C2_22137  and  C11_22146 
REMARK    2  A    between atoms: C3_22138  and  C4_22139 
REMARK    3  A    between atoms: C5_22140  and  N1_22152 
REMARK    4  A    between atoms: C8_22143  and  S1_22161 
REMARK    5  A    between atoms: N3_22154  and  S1_22161 
ROOT
HETATM    1  C1  S58 A 701      26.612  21.768  15.738  1.00  9.00     0.044 A 
HETATM    2  C2  S58 A 701      25.379  22.067  15.243  1.00  8.39     0.084 A 
HETATM    3  C3  S58 A 701      26.425  21.527  17.198  1.00  9.72     0.174 A 
HETATM    4  N1  S58 A 701      24.463  22.010  16.269  1.00 11.18    -0.230 N 
HETATM    5  N2  S58 A 701      25.154  21.658  17.469  1.00 11.04    -0.161 NA
ENDROOT
BRANCH   4   6
HETATM    6  C5  S58 A 701      23.097  21.922  16.194  1.00 11.70     0.083 A 
HETATM    7  C6  S58 A 701      22.431  22.888  15.428  1.00 10.08     0.020 A 
HETATM    8  C7  S58 A 701      21.056  22.807  15.273  1.00 13.76     0.014 A 
HETATM    9  C8  S58 A 701      20.345  21.750  15.886  1.00 13.58     0.103 A 
HETATM   10  C9  S58 A 701      21.015  20.782  16.652  1.00 15.22     0.014 A 
HETATM   11  C10 S58 A 701      22.401  20.872  16.808  1.00 14.22     0.020 A 
BRANCH   9  12
HETATM   12  S1  S58 A 701      18.537  21.626  15.676  1.00 11.93     0.258 S 
HETATM   13  O1  S58 A 701      18.172  22.221  14.429  1.00  9.06    -0.201 OA
HETATM   14  O2  S58 A 701      17.916  22.343  16.754  1.00 10.85    -0.201 OA
BRANCH  12  15
HETATM   15  N3  S58 A 701      18.108  19.926  15.745  1.00  8.29    -0.324 N 
HETATM   16 1HN3 S58 A 701      18.012  19.485  16.612  1.00 17.00     0.169 HD
HETATM   17 2HN3 S58 A 701      17.963  19.419  14.916  1.00 17.00     0.169 HD
ENDBRANCH  12  15
ENDBRANCH   9  12
ENDBRANCH   4   6
BRANCH   2  18
HETATM   18  C11 S58 A 701      25.104  22.440  13.822  1.00  5.71     0.018 A 
HETATM   19  C12 S58 A 701      24.285  21.600  13.025  1.00  5.31     0.002 A 
HETATM   20  C13 S58 A 701      23.893  22.009  11.737  1.00  2.00     0.007 A 
HETATM   21  C14 S58 A 701      24.307  23.244  11.246  1.00  2.00     0.035 A 
HETATM   22  C15 S58 A 701      25.140  24.064  12.014  1.00  2.25     0.007 A 
HETATM   23 BR1  S58 A 701      23.616  23.862   9.649  1.00  4.05    -0.049 Br
HETATM   24  C16 S58 A 701      25.541  23.663  13.310  1.00  2.30     0.002 A 
ENDBRANCH   2  18
BRANCH   3  25
HETATM   25  C4  S58 A 701      27.466  21.255  18.242  1.00  8.58     0.437 C 
HETATM   26  F1  S58 A 701      26.866  21.123  19.452  1.00  2.57    -0.164 F 
HETATM   27  F2  S58 A 701      28.379  22.239  18.246  1.00  8.03    -0.164 F 
HETATM   28  F3  S58 A 701      28.068  20.101  17.932  1.00 10.66    -0.164 F 
ENDBRANCH   3  25
TORSDOF 5
