REMARK  5 active torsions:
REMARK  status: ('A' for Active; 'I' for Inactive)
REMARK    1  A    between atoms: C2_22137  and  C11_22146 
REMARK    2  A    between atoms: C3_22138  and  C4_22139 
REMARK    3  A    between atoms: C5_22140  and  N1_22152 
REMARK    4  A    between atoms: C8_22143  and  S1_22161 
REMARK    5  A    between atoms: N3_22154  and  S1_22161 
ROOT
HETATM    1  C1  S58 A 701      20.798  22.826  14.645  1.00  9.00     0.044 A 
HETATM    2  C2  S58 A 701      22.114  22.497  14.764  1.00  8.39     0.084 A 
HETATM    3  C3  S58 A 701      20.071  21.991  15.645  1.00  9.72     0.174 A 
HETATM    4  N1  S58 A 701      22.249  21.554  15.757  1.00 11.18    -0.230 N 
HETATM    5  N2  S58 A 701      20.952  21.275  16.289  1.00 11.04    -0.161 NA
ENDROOT
BRANCH   4   6
HETATM    6  C5  S58 A 701      23.381  21.173  16.430  1.00 11.70     0.083 A 
HETATM    7  C6  S58 A 701      23.914  19.913  16.130  1.00 10.08     0.020 A 
HETATM    8  C7  S58 A 701      25.091  19.506  16.740  1.00 13.76     0.014 A 
HETATM    9  C8  S58 A 701      25.738  20.370  17.654  1.00 13.58     0.103 A 
HETATM   10  C9  S58 A 701      25.202  21.634  17.952  1.00 15.22     0.014 A 
HETATM   11  C10 S58 A 701      24.013  22.035  17.337  1.00 14.22     0.020 A 
BRANCH   9  12
HETATM   12  S1  S58 A 701      27.294  19.850  18.451  1.00 11.93     0.258 S 
HETATM   13  O1  S58 A 701      28.309  20.814  18.164  1.00  9.06    -0.201 OA
HETATM   14  O2  S58 A 701      27.668  18.576  17.904  1.00 10.85    -0.201 OA
BRANCH  12  15
HETATM   15  N3  S58 A 701      26.988  19.710  20.173  1.00  8.29    -0.324 N 
HETATM   16 1HN3 S58 A 701      26.077  19.561  20.493  1.00 17.00     0.169 HD
HETATM   17 2HN3 S58 A 701      27.729  19.777  20.813  1.00 17.00     0.169 HD
ENDBRANCH  12  15
ENDBRANCH   9  12
ENDBRANCH   4   6
BRANCH   2  18
HETATM   18  C11 S58 A 701      23.207  23.052  13.908  1.00  5.71     0.018 A 
HETATM   19  C12 S58 A 701      23.136  22.903  12.499  1.00  5.31     0.002 A 
HETATM   20  C13 S58 A 701      24.075  23.548  11.672  1.00  2.00     0.007 A 
HETATM   21  C14 S58 A 701      25.072  24.337  12.237  1.00  2.00     0.035 A 
HETATM   22  C15 S58 A 701      25.166  24.463  13.628  1.00  2.25     0.007 A 
HETATM   23 BR1  S58 A 701      26.161  25.345  11.140  1.00  4.05    -0.049 Br
HETATM   24  C16 S58 A 701      24.229  23.820  14.470  1.00  2.30     0.002 A 
ENDBRANCH   2  18
BRANCH   3  25
HETATM   25  C4  S58 A 701      18.594  21.883  15.875  1.00  8.58     0.437 C 
HETATM   26  F1  S58 A 701      17.936  22.555  14.897  1.00  2.57    -0.164 F 
HETATM   27  F2  S58 A 701      18.285  22.353  17.094  1.00  8.03    -0.164 F 
HETATM   28  F3  S58 A 701      18.260  20.589  15.808  1.00 10.66    -0.164 F 
ENDBRANCH   3  25
TORSDOF 5
