REMARK  5 active torsions:
REMARK  status: ('A' for Active; 'I' for Inactive)
REMARK    1  A    between atoms: C2_22137  and  C11_22146 
REMARK    2  A    between atoms: C3_22138  and  C4_22139 
REMARK    3  A    between atoms: C5_22140  and  N1_22152 
REMARK    4  A    between atoms: C8_22143  and  S1_22161 
REMARK    5  A    between atoms: N3_22154  and  S1_22161 
ROOT
HETATM    1  C1  S58 A 701      24.622  20.910  17.582  1.00  9.00     0.044 A 
HETATM    2  C2  S58 A 701      24.046  21.327  16.420  1.00  8.39     0.084 A 
HETATM    3  C3  S58 A 701      26.068  20.708  17.276  1.00  9.72     0.174 A 
HETATM    4  N1  S58 A 701      25.016  21.413  15.448  1.00 11.18    -0.230 N 
HETATM    5  N2  S58 A 701      26.266  21.030  16.027  1.00 11.04    -0.161 NA
ENDROOT
BRANCH   4   6
HETATM    6  C5  S58 A 701      24.972  22.075  14.248  1.00 11.70     0.083 A 
HETATM    7  C6  S58 A 701      24.013  21.655  13.318  1.00 10.08     0.020 A 
HETATM    8  C7  S58 A 701      23.888  22.331  12.113  1.00 13.76     0.014 A 
HETATM    9  C8  S58 A 701      24.727  23.436  11.843  1.00 13.58     0.103 A 
HETATM   10  C9  S58 A 701      25.688  23.855  12.779  1.00 15.22     0.014 A 
HETATM   11  C10 S58 A 701      25.811  23.167  13.988  1.00 14.22     0.020 A 
BRANCH   9  12
HETATM   12  S1  S58 A 701      24.562  24.340  10.268  1.00 11.93     0.258 S 
HETATM   13  O1  S58 A 701      25.783  24.228   9.535  1.00  9.06    -0.201 OA
HETATM   14  O2  S58 A 701      24.306  25.720  10.574  1.00 10.85    -0.201 OA
BRANCH  12  15
HETATM   15  N3  S58 A 701      23.206  23.646   9.396  1.00  8.29    -0.324 N 
HETATM   16 1HN3 S58 A 701      22.499  24.229   9.056  1.00 17.00     0.169 HD
HETATM   17 2HN3 S58 A 701      23.158  22.677   9.247  1.00 17.00     0.169 HD
ENDBRANCH  12  15
ENDBRANCH   9  12
ENDBRANCH   4   6
BRANCH   2  18
HETATM   18  C11 S58 A 701      22.585  21.595  16.248  1.00  5.71     0.018 A 
HETATM   19  C12 S58 A 701      22.165  22.717  15.489  1.00  5.31     0.002 A 
HETATM   20  C13 S58 A 701      20.802  22.900  15.191  1.00  2.00     0.007 A 
HETATM   21  C14 S58 A 701      19.864  21.973  15.637  1.00  2.00     0.035 A 
HETATM   22  C15 S58 A 701      20.268  20.879  16.412  1.00  2.25     0.007 A 
HETATM   23 BR1  S58 A 701      18.115  22.105  15.062  1.00  4.05    -0.049 Br
HETATM   24  C16 S58 A 701      21.635  20.686  16.719  1.00  2.30     0.002 A 
ENDBRANCH   2  18
BRANCH   3  25
HETATM   25  C4  S58 A 701      27.145  20.165  18.167  1.00  8.58     0.437 C 
HETATM   26  F1  S58 A 701      28.050  21.142  18.425  1.00  2.57    -0.164 F 
HETATM   27  F2  S58 A 701      27.719  19.096  17.593  1.00  8.03    -0.164 F 
HETATM   28  F3  S58 A 701      26.576  19.790  19.318  1.00 10.66    -0.164 F 
ENDBRANCH   3  25
TORSDOF 5
