REMARK  5 active torsions:
REMARK  status: ('A' for Active; 'I' for Inactive)
REMARK    1  A    between atoms: C2_22137  and  C11_22146 
REMARK    2  A    between atoms: C3_22138  and  C4_22139 
REMARK    3  A    between atoms: C5_22140  and  N1_22152 
REMARK    4  A    between atoms: C8_22143  and  S1_22161 
REMARK    5  A    between atoms: N3_22154  and  S1_22161 
ROOT
HETATM    1  C1  S58 A 701      20.778  22.863  14.643  1.00  9.00     0.044 A 
HETATM    2  C2  S58 A 701      22.091  22.522  14.762  1.00  8.39     0.084 A 
HETATM    3  C3  S58 A 701      20.043  22.034  15.642  1.00  9.72     0.174 A 
HETATM    4  N1  S58 A 701      22.216  21.577  15.755  1.00 11.18    -0.230 N 
HETATM    5  N2  S58 A 701      20.917  21.310  16.287  1.00 11.04    -0.161 NA
ENDROOT
BRANCH   4   6
HETATM    6  C5  S58 A 701      23.344  21.185  16.428  1.00 11.70     0.083 A 
HETATM    7  C6  S58 A 701      23.923  19.965  16.057  1.00 10.08     0.020 A 
HETATM    8  C7  S58 A 701      25.099  19.553  16.668  1.00 13.76     0.014 A 
HETATM    9  C8  S58 A 701      25.698  20.372  17.652  1.00 13.58     0.103 A 
HETATM   10  C9  S58 A 701      25.116  21.596  18.021  1.00 15.22     0.014 A 
HETATM   11  C10 S58 A 701      23.929  22.002  17.406  1.00 14.22     0.020 A 
BRANCH   9  12
HETATM   12  S1  S58 A 701      27.252  19.846  18.450  1.00 11.93     0.258 S 
HETATM   13  O1  S58 A 701      28.253  20.838  18.218  1.00  9.06    -0.201 OA
HETATM   14  O2  S58 A 701      27.655  18.602  17.857  1.00 10.85    -0.201 OA
BRANCH  12  15
HETATM   15  N3  S58 A 701      26.924  19.630  20.161  1.00  8.29    -0.324 N 
HETATM   16 1HN3 S58 A 701      26.178  19.065  20.444  1.00 17.00     0.169 HD
HETATM   17 2HN3 S58 A 701      27.489  20.071  20.831  1.00 17.00     0.169 HD
ENDBRANCH  12  15
ENDBRANCH   9  12
ENDBRANCH   4   6
BRANCH   2  18
HETATM   18  C11 S58 A 701      23.189  23.067  13.907  1.00  5.71     0.018 A 
HETATM   19  C12 S58 A 701      23.114  22.926  12.498  1.00  5.31     0.002 A 
HETATM   20  C13 S58 A 701      24.058  23.562  11.671  1.00  2.00     0.007 A 
HETATM   21  C14 S58 A 701      25.067  24.337  12.239  1.00  2.00     0.035 A 
HETATM   22  C15 S58 A 701      25.165  24.455  13.630  1.00  2.25     0.007 A 
HETATM   23 BR1  S58 A 701      26.166  25.336  11.144  1.00  4.05    -0.049 Br
HETATM   24  C16 S58 A 701      24.221  23.819  14.471  1.00  2.30     0.002 A 
ENDBRANCH   2  18
BRANCH   3  25
HETATM   25  C4  S58 A 701      18.564  21.940  15.872  1.00  8.58     0.437 C 
HETATM   26  F1  S58 A 701      17.916  22.681  14.939  1.00  2.57    -0.164 F 
HETATM   27  F2  S58 A 701      18.268  22.341  17.118  1.00  8.03    -0.164 F 
HETATM   28  F3  S58 A 701      18.207  20.658  15.729  1.00 10.66    -0.164 F 
ENDBRANCH   3  25
TORSDOF 5
