REMARK  5 active torsions:
REMARK  status: ('A' for Active; 'I' for Inactive)
REMARK    1  A    between atoms: C2_22137  and  C11_22146 
REMARK    2  A    between atoms: C3_22138  and  C4_22139 
REMARK    3  A    between atoms: C5_22140  and  N1_22152 
REMARK    4  A    between atoms: C8_22143  and  S1_22161 
REMARK    5  A    between atoms: N3_22154  and  S1_22161 
ROOT
HETATM    1  C1  S58 A 701      24.380  20.940  17.526  1.00  9.00     0.044 A 
HETATM    2  C2  S58 A 701      23.837  21.367  16.352  1.00  8.39     0.084 A 
HETATM    3  C3  S58 A 701      25.828  20.711  17.253  1.00  9.72     0.174 A 
HETATM    4  N1  S58 A 701      24.831  21.436  15.402  1.00 11.18    -0.230 N 
HETATM    5  N2  S58 A 701      26.060  21.030  16.009  1.00 11.04    -0.161 NA
ENDROOT
BRANCH   4   6
HETATM    6  C5  S58 A 701      24.826  22.099  14.202  1.00 11.70     0.083 A 
HETATM    7  C6  S58 A 701      23.994  21.595  13.193  1.00 10.08     0.020 A 
HETATM    8  C7  S58 A 701      23.909  22.265  11.982  1.00 13.76     0.014 A 
HETATM    9  C8  S58 A 701      24.658  23.447  11.783  1.00 13.58     0.103 A 
HETATM   10  C9  S58 A 701      25.490  23.950  12.797  1.00 15.22     0.014 A 
HETATM   11  C10 S58 A 701      25.575  23.268  14.013  1.00 14.22     0.020 A 
BRANCH   9  12
HETATM   12  S1  S58 A 701      24.541  24.343  10.198  1.00 11.93     0.258 S 
HETATM   13  O1  S58 A 701      25.779  24.212   9.497  1.00  9.06    -0.201 OA
HETATM   14  O2  S58 A 701      24.293  25.727  10.489  1.00 10.85    -0.201 OA
BRANCH  12  15
HETATM   15  N3  S58 A 701      23.199  23.658   9.298  1.00  8.29    -0.324 N 
HETATM   16 1HN3 S58 A 701      22.474  24.238   8.992  1.00 17.00     0.169 HD
HETATM   17 2HN3 S58 A 701      23.177  22.697   9.099  1.00 17.00     0.169 HD
ENDBRANCH  12  15
ENDBRANCH   9  12
ENDBRANCH   4   6
BRANCH   2  18
HETATM   18  C11 S58 A 701      22.386  21.662  16.147  1.00  5.71     0.018 A 
HETATM   19  C12 S58 A 701      22.002  22.700  15.259  1.00  5.31     0.002 A 
HETATM   20  C13 S58 A 701      20.645  22.891  14.939  1.00  2.00     0.007 A 
HETATM   21  C14 S58 A 701      19.678  22.056  15.491  1.00  2.00     0.035 A 
HETATM   22  C15 S58 A 701      20.046  21.050  16.391  1.00  2.25     0.007 A 
HETATM   23 BR1  S58 A 701      17.933  22.178  14.902  1.00  4.05    -0.049 Br
HETATM   24  C16 S58 A 701      21.407  20.848  16.721  1.00  2.30     0.002 A 
ENDBRANCH   2  18
BRANCH   3  25
HETATM   25  C4  S58 A 701      26.875  20.149  18.168  1.00  8.58     0.437 C 
HETATM   26  F1  S58 A 701      27.905  21.026  18.266  1.00  2.57    -0.164 F 
HETATM   27  F2  S58 A 701      27.283  18.953  17.715  1.00  8.03    -0.164 F 
HETATM   28  F3  S58 A 701      26.324  19.994  19.377  1.00 10.66    -0.164 F 
ENDBRANCH   3  25
TORSDOF 5
