REMARK  9 active torsions:
REMARK  status: ('A' for Active; 'I' for Inactive)
REMARK    1  A    between atoms: C9_2  and  C8_3 
REMARK    2  A    between atoms: C8_3  and  C11_4 
REMARK    3  A    between atoms: C7_10  and  C1_11 
REMARK    4  A    between atoms: C7_10  and  C17_19 
REMARK    5  A    between atoms: C4_14  and  O4_15 
REMARK    6  A    between atoms: C20_22  and  O20_23 
REMARK    7  A    between atoms: O20_23  and  C23_24 
REMARK    8  A    between atoms: C23_24  and  C24_25 
REMARK    9  A    between atoms: C24_25  and  N24_26 
ROOT
HETATM    1  C8  OHT A 600      67.789  34.455  71.788  1.00 25.22    -0.036 C 
HETATM    2  C7  OHT A 600      67.524  33.795  72.954  1.00 24.63    -0.009 C 
ENDROOT
BRANCH   2   3
HETATM    3  C1  OHT A 600      66.604  32.603  73.054  1.00 24.14    -0.024 A 
HETATM    4  C2  OHT A 600      66.819  31.418  72.283  1.00 26.17     0.015 A 
HETATM    5  C3  OHT A 600      65.919  30.345  72.356  1.00 26.36     0.037 A 
HETATM    6  C4  OHT A 600      64.797  30.445  73.200  1.00 29.58     0.065 A 
HETATM    7  C5  OHT A 600      64.576  31.610  73.969  1.00 27.04     0.037 A 
HETATM    8  C6  OHT A 600      65.479  32.663  73.882  1.00 25.11     0.015 A 
BRANCH   6   9
HETATM    9  O4  OHT A 600      63.926  29.397  73.239  1.00 28.95    -0.361 OA
ATOM     10  H4  OHT A 600      63.527  29.178  74.072  1.00  0.00     0.217 HD
ENDBRANCH   6   9
ENDBRANCH   2   3
BRANCH   2  11
HETATM   11  C17 OHT A 600      68.103  34.200  74.238  1.00 26.54    -0.024 A 
HETATM   12  C18 OHT A 600      67.517  35.190  75.024  1.00 26.76     0.015 A 
HETATM   13  C19 OHT A 600      68.028  35.563  76.235  1.00 28.12     0.037 A 
HETATM   14  C20 OHT A 600      69.170  34.941  76.713  1.00 28.11     0.068 A 
HETATM   15  C21 OHT A 600      69.790  33.939  75.946  1.00 26.98     0.037 A 
HETATM   16  C22 OHT A 600      69.259  33.585  74.738  1.00 27.89     0.015 A 
BRANCH  14  17
HETATM   17  O20 OHT A 600      69.725  35.227  77.928  1.00 31.97    -0.349 OA
BRANCH  17  18
HETATM   18  C23 OHT A 600      69.871  36.583  78.340  1.00 40.10     0.206 C 
BRANCH  18  19
HETATM   19  C24 OHT A 600      68.808  36.832  79.376  1.00 45.21     0.297 C 
BRANCH  19  20
HETATM   20  N24 OHT A 600      68.007  37.995  79.113  1.00 50.11     0.082 N 
HETATM   21  C25 OHT A 600      67.756  38.766  80.332  1.00 52.05     0.309 C 
HETATM   22  C26 OHT A 600      68.703  38.865  78.158  1.00 52.76     0.309 C 
ENDBRANCH  19  20
ENDBRANCH  18  19
ENDBRANCH  17  18
ENDBRANCH  14  17
ENDBRANCH   2  11
BRANCH   1  23
HETATM   23  C9  OHT A 600      66.960  34.267  70.535  1.00 23.31     0.036 C 
HETATM   24  C10 OHT A 600      66.153  35.491  70.198  1.00 26.22     0.010 C 
ENDBRANCH   1  23
BRANCH   1  25
HETATM   25  C11 OHT A 600      68.916  35.423  71.622  1.00 27.85    -0.029 A 
HETATM   26  C16 OHT A 600      68.663  36.807  71.505  1.00 28.59     0.012 A 
HETATM   27  C15 OHT A 600      69.718  37.714  71.400  1.00 30.60     0.001 A 
HETATM   28  C14 OHT A 600      71.030  37.283  71.403  1.00 30.44     0.000 A 
HETATM   29  C13 OHT A 600      71.294  35.939  71.515  1.00 31.30     0.001 A 
HETATM   30  C12 OHT A 600      70.245  35.019  71.623  1.00 28.04     0.012 A 
ENDBRANCH   1  25
TORSDOF 9
