REMARK  9 active torsions:
REMARK  status: ('A' for Active; 'I' for Inactive)
REMARK    1  A    between atoms: C9_2  and  C8_3 
REMARK    2  A    between atoms: C8_3  and  C11_4 
REMARK    3  A    between atoms: C7_10  and  C1_11 
REMARK    4  A    between atoms: C7_10  and  C17_19 
REMARK    5  A    between atoms: C4_14  and  O4_15 
REMARK    6  A    between atoms: C20_22  and  O20_23 
REMARK    7  A    between atoms: O20_23  and  C23_24 
REMARK    8  A    between atoms: C23_24  and  C24_25 
REMARK    9  A    between atoms: C24_25  and  N24_26 
ROOT
HETATM    1  C8  OHT A 600      67.808  34.444  71.529  1.00 25.22    -0.036 C 
HETATM    2  C7  OHT A 600      67.546  33.615  72.582  1.00 24.63    -0.009 C 
ENDROOT
BRANCH   2   3
HETATM    3  C1  OHT A 600      66.617  32.428  72.507  1.00 24.14    -0.024 A 
HETATM    4  C2  OHT A 600      66.652  31.512  71.410  1.00 26.17     0.015 A 
HETATM    5  C3  OHT A 600      65.742  30.448  71.339  1.00 26.36     0.037 A 
HETATM    6  C4  OHT A 600      64.789  30.288  72.363  1.00 29.58     0.065 A 
HETATM    7  C5  OHT A 600      64.747  31.186  73.454  1.00 27.04     0.037 A 
HETATM    8  C6  OHT A 600      65.657  32.235  73.505  1.00 25.11     0.015 A 
BRANCH   6   9
HETATM    9  O4  OHT A 600      63.903  29.258  72.261  1.00 28.95    -0.361 OA
ATOM     10  H4  OHT A 600      63.522  28.914  73.061  1.00  0.00     0.217 HD
ENDBRANCH   6   9
ENDBRANCH   2   3
BRANCH   2  11
HETATM   11  C17 OHT A 600      68.139  33.814  73.908  1.00 26.54    -0.024 A 
HETATM   12  C18 OHT A 600      69.284  33.127  74.306  1.00 26.76     0.015 A 
HETATM   13  C19 OHT A 600      69.865  33.317  75.528  1.00 28.12     0.037 A 
HETATM   14  C20 OHT A 600      69.308  34.226  76.414  1.00 28.11     0.068 A 
HETATM   15  C21 OHT A 600      68.151  34.935  76.047  1.00 26.98     0.037 A 
HETATM   16  C22 OHT A 600      67.589  34.726  74.818  1.00 27.89     0.015 A 
BRANCH  14  17
HETATM   17  O20 OHT A 600      69.845  34.503  77.638  1.00 31.97    -0.349 OA
BRANCH  17  18
HETATM   18  C23 OHT A 600      70.232  35.836  77.959  1.00 40.10     0.206 C 
BRANCH  18  19
HETATM   19  C24 OHT A 600      69.699  36.116  79.338  1.00 45.21     0.297 C 
BRANCH  19  20
HETATM   20  N24 OHT A 600      68.528  36.949  79.347  1.00 50.11     0.082 N 
HETATM   21  C25 OHT A 600      68.394  37.680  80.608  1.00 52.05     0.309 C 
HETATM   22  C26 OHT A 600      68.615  37.929  78.259  1.00 52.76     0.309 C 
ENDBRANCH  19  20
ENDBRANCH  18  19
ENDBRANCH  17  18
ENDBRANCH  14  17
ENDBRANCH   2  11
BRANCH   1  23
HETATM   23  C9  OHT A 600      66.966  34.457  70.270  1.00 23.31     0.036 C 
HETATM   24  C10 OHT A 600      66.143  35.709  70.149  1.00 26.22     0.010 C 
ENDBRANCH   1  23
BRANCH   1  25
HETATM   25  C11 OHT A 600      68.941  35.419  71.503  1.00 27.85    -0.029 A 
HETATM   26  C16 OHT A 600      68.695  36.808  71.508  1.00 28.59     0.012 A 
HETATM   27  C15 OHT A 600      69.754  37.716  71.533  1.00 30.60     0.001 A 
HETATM   28  C14 OHT A 600      71.065  37.280  71.550  1.00 30.44     0.000 A 
HETATM   29  C13 OHT A 600      71.322  35.930  71.544  1.00 31.30     0.001 A 
HETATM   30  C12 OHT A 600      70.269  35.009  71.521  1.00 28.04     0.012 A 
ENDBRANCH   1  25
TORSDOF 9
