REMARK  9 active torsions:
REMARK  status: ('A' for Active; 'I' for Inactive)
REMARK    1  A    between atoms: C9_2  and  C8_3 
REMARK    2  A    between atoms: C8_3  and  C11_4 
REMARK    3  A    between atoms: C7_10  and  C1_11 
REMARK    4  A    between atoms: C7_10  and  C17_19 
REMARK    5  A    between atoms: C4_14  and  O4_15 
REMARK    6  A    between atoms: C20_22  and  O20_23 
REMARK    7  A    between atoms: O20_23  and  C23_24 
REMARK    8  A    between atoms: C23_24  and  C24_25 
REMARK    9  A    between atoms: C24_25  and  N24_26 
ROOT
HETATM    1  C8  OHT A 600      67.826  34.513  71.908  1.00 25.22    -0.036 C 
HETATM    2  C7  OHT A 600      67.510  33.815  73.038  1.00 24.63    -0.009 C 
ENDROOT
BRANCH   2   3
HETATM    3  C1  OHT A 600      66.549  32.653  73.067  1.00 24.14    -0.024 A 
HETATM    4  C2  OHT A 600      65.141  32.843  73.231  1.00 26.17     0.015 A 
HETATM    5  C3  OHT A 600      64.276  31.742  73.308  1.00 26.36     0.037 A 
HETATM    6  C4  OHT A 600      64.809  30.442  73.220  1.00 29.58     0.065 A 
HETATM    7  C5  OHT A 600      66.198  30.242  73.055  1.00 27.04     0.037 A 
HETATM    8  C6  OHT A 600      67.038  31.346  72.983  1.00 25.11     0.015 A 
BRANCH   6   9
HETATM    9  O4  OHT A 600      63.950  29.388  73.317  1.00 28.95    -0.361 OA
ATOM     10  H4  OHT A 600      63.546  29.214  74.159  1.00  0.00     0.217 HD
ENDBRANCH   6   9
ENDBRANCH   2   3
BRANCH   2  11
HETATM   11  C17 OHT A 600      68.072  34.147  74.352  1.00 26.54    -0.024 A 
HETATM   12  C18 OHT A 600      67.557  35.183  75.126  1.00 26.76     0.015 A 
HETATM   13  C19 OHT A 600      68.051  35.491  76.362  1.00 28.12     0.037 A 
HETATM   14  C20 OHT A 600      69.102  34.750  76.879  1.00 28.11     0.068 A 
HETATM   15  C21 OHT A 600      69.649  33.698  76.125  1.00 26.98     0.037 A 
HETATM   16  C22 OHT A 600      69.136  33.411  74.891  1.00 27.89     0.015 A 
BRANCH  14  17
HETATM   17  O20 OHT A 600      69.630  34.966  78.120  1.00 31.97    -0.349 OA
BRANCH  17  18
HETATM   18  C23 OHT A 600      68.766  35.185  79.231  1.00 40.10     0.206 C 
BRANCH  18  19
HETATM   19  C24 OHT A 600      69.035  36.584  79.714  1.00 45.21     0.297 C 
BRANCH  19  20
HETATM   20  N24 OHT A 600      67.961  37.502  79.452  1.00 50.11     0.082 N 
HETATM   21  C25 OHT A 600      67.544  38.208  80.664  1.00 52.05     0.309 C 
HETATM   22  C26 OHT A 600      68.397  38.501  78.470  1.00 52.76     0.309 C 
ENDBRANCH  19  20
ENDBRANCH  18  19
ENDBRANCH  17  18
ENDBRANCH  14  17
ENDBRANCH   2  11
BRANCH   1  23
HETATM   23  C9  OHT A 600      67.021  34.406  70.629  1.00 23.31     0.036 C 
HETATM   24  C10 OHT A 600      66.410  35.721  70.230  1.00 26.22     0.010 C 
ENDBRANCH   1  23
BRANCH   1  25
HETATM   25  C11 OHT A 600      68.988  35.448  71.808  1.00 27.85    -0.029 A 
HETATM   26  C16 OHT A 600      70.280  34.963  71.513  1.00 28.59     0.012 A 
HETATM   27  C15 OHT A 600      71.353  35.842  71.372  1.00 30.60     0.001 A 
HETATM   28  C14 OHT A 600      71.181  37.204  71.520  1.00 30.44     0.000 A 
HETATM   29  C13 OHT A 600      69.930  37.695  71.810  1.00 31.30     0.001 A 
HETATM   30  C12 OHT A 600      68.845  36.823  71.951  1.00 28.04     0.012 A 
ENDBRANCH   1  25
TORSDOF 9
