REMARK  9 active torsions:
REMARK  status: ('A' for Active; 'I' for Inactive)
REMARK    1  A    between atoms: C9_2  and  C8_3 
REMARK    2  A    between atoms: C8_3  and  C11_4 
REMARK    3  A    between atoms: C7_10  and  C1_11 
REMARK    4  A    between atoms: C7_10  and  C17_19 
REMARK    5  A    between atoms: C4_14  and  O4_15 
REMARK    6  A    between atoms: C20_22  and  O20_23 
REMARK    7  A    between atoms: O20_23  and  C23_24 
REMARK    8  A    between atoms: C23_24  and  C24_25 
REMARK    9  A    between atoms: C24_25  and  N24_26 
ROOT
HETATM    1  C8  OHT A 600      67.049  33.462  71.475  1.00 25.22    -0.036 C 
HETATM    2  C7  OHT A 600      67.822  34.445  72.024  1.00 24.63    -0.009 C 
ENDROOT
BRANCH   2   3
HETATM    3  C1  OHT A 600      68.203  35.715  71.305  1.00 24.14    -0.024 A 
HETATM    4  C2  OHT A 600      69.507  36.289  71.426  1.00 26.17     0.015 A 
HETATM    5  C3  OHT A 600      69.818  37.498  70.789  1.00 26.36     0.037 A 
HETATM    6  C4  OHT A 600      68.829  38.146  70.024  1.00 29.58     0.065 A 
HETATM    7  C5  OHT A 600      67.537  37.587  69.895  1.00 27.04     0.037 A 
HETATM    8  C6  OHT A 600      67.249  36.389  70.535  1.00 25.11     0.015 A 
BRANCH   6   9
HETATM    9  O4  OHT A 600      69.149  39.331  69.431  1.00 28.95    -0.361 OA
ATOM     10  H4  OHT A 600      69.647  39.964  69.935  1.00  0.00     0.217 HD
ENDBRANCH   6   9
ENDBRANCH   2   3
BRANCH   2  11
HETATM   11  C17 OHT A 600      68.375  34.348  73.378  1.00 26.54    -0.024 A 
HETATM   12  C18 OHT A 600      67.833  35.064  74.442  1.00 26.76     0.015 A 
HETATM   13  C19 OHT A 600      68.319  34.968  75.715  1.00 28.12     0.037 A 
HETATM   14  C20 OHT A 600      69.390  34.127  75.974  1.00 28.11     0.068 A 
HETATM   15  C21 OHT A 600      69.965  33.391  74.924  1.00 26.98     0.037 A 
HETATM   16  C22 OHT A 600      69.460  33.505  73.659  1.00 27.89     0.015 A 
BRANCH  14  17
HETATM   17  O20 OHT A 600      69.913  33.944  77.222  1.00 31.97    -0.349 OA
BRANCH  17  18
HETATM   18  C23 OHT A 600      69.287  34.548  78.350  1.00 40.10     0.206 C 
BRANCH  18  19
HETATM   19  C24 OHT A 600      69.974  35.869  78.565  1.00 45.21     0.297 C 
BRANCH  19  20
HETATM   20  N24 OHT A 600      69.146  36.853  79.207  1.00 50.11     0.082 N 
HETATM   21  C25 OHT A 600      68.671  37.861  78.259  1.00 52.05     0.309 C 
HETATM   22  C26 OHT A 600      67.976  36.197  79.802  1.00 52.76     0.309 C 
ENDBRANCH  19  20
ENDBRANCH  18  19
ENDBRANCH  17  18
ENDBRANCH  14  17
ENDBRANCH   2  11
BRANCH   1  23
HETATM   23  C9  OHT A 600      66.752  33.389  69.991  1.00 23.31     0.036 C 
HETATM   24  C10 OHT A 600      66.745  31.974  69.481  1.00 26.22     0.010 C 
ENDBRANCH   1  23
BRANCH   1  25
HETATM   25  C11 OHT A 600      66.419  32.362  72.267  1.00 27.85    -0.029 A 
HETATM   26  C16 OHT A 600      65.043  32.395  72.576  1.00 28.59     0.012 A 
HETATM   27  C15 OHT A 600      64.447  31.344  73.274  1.00 30.60     0.001 A 
HETATM   28  C14 OHT A 600      65.186  30.251  73.680  1.00 30.44     0.000 A 
HETATM   29  C13 OHT A 600      66.528  30.202  73.389  1.00 31.30     0.001 A 
HETATM   30  C12 OHT A 600      67.137  31.249  72.688  1.00 28.04     0.012 A 
ENDBRANCH   1  25
TORSDOF 9
