REMARK  9 active torsions:
REMARK  status: ('A' for Active; 'I' for Inactive)
REMARK    1  A    between atoms: C9_2  and  C8_3 
REMARK    2  A    between atoms: C8_3  and  C11_4 
REMARK    3  A    between atoms: C7_10  and  C1_11 
REMARK    4  A    between atoms: C7_10  and  C17_19 
REMARK    5  A    between atoms: C4_14  and  O4_15 
REMARK    6  A    between atoms: C20_22  and  O20_23 
REMARK    7  A    between atoms: O20_23  and  C23_24 
REMARK    8  A    between atoms: C23_24  and  C24_25 
REMARK    9  A    between atoms: C24_25  and  N24_26 
ROOT
HETATM    1  C8  OHT A 600      67.784  34.478  71.764  1.00 25.22    -0.036 C 
HETATM    2  C7  OHT A 600      67.550  33.755  72.898  1.00 24.63    -0.009 C 
ENDROOT
BRANCH   2   3
HETATM    3  C1  OHT A 600      66.576  32.605  72.976  1.00 24.14    -0.024 A 
HETATM    4  C2  OHT A 600      65.307  32.734  73.623  1.00 26.17     0.015 A 
HETATM    5  C3  OHT A 600      64.443  31.634  73.727  1.00 26.36     0.037 A 
HETATM    6  C4  OHT A 600      64.838  30.397  73.184  1.00 29.58     0.065 A 
HETATM    7  C5  OHT A 600      66.088  30.258  72.539  1.00 27.04     0.037 A 
HETATM    8  C6  OHT A 600      66.930  31.359  72.448  1.00 25.11     0.015 A 
BRANCH   6   9
HETATM    9  O4  OHT A 600      63.989  29.338  73.315  1.00 28.95    -0.361 OA
ATOM     10  H4  OHT A 600      63.522  29.237  74.136  1.00  0.00     0.217 HD
ENDBRANCH   6   9
ENDBRANCH   2   3
BRANCH   2  11
HETATM   11  C17 OHT A 600      68.221  34.043  74.169  1.00 26.54    -0.024 A 
HETATM   12  C18 OHT A 600      69.229  33.219  74.666  1.00 26.76     0.015 A 
HETATM   13  C19 OHT A 600      69.883  33.485  75.836  1.00 28.12     0.037 A 
HETATM   14  C20 OHT A 600      69.543  34.614  76.565  1.00 28.11     0.068 A 
HETATM   15  C21 OHT A 600      68.529  35.466  76.095  1.00 26.98     0.037 A 
HETATM   16  C22 OHT A 600      67.890  35.177  74.922  1.00 27.89     0.015 A 
BRANCH  14  17
HETATM   17  O20 OHT A 600      70.171  34.972  77.723  1.00 31.97    -0.349 OA
BRANCH  17  18
HETATM   18  C23 OHT A 600      69.623  34.581  78.979  1.00 40.10     0.206 C 
BRANCH  18  19
HETATM   19  C24 OHT A 600      69.849  35.732  79.922  1.00 45.21     0.297 C 
BRANCH  19  20
HETATM   20  N24 OHT A 600      68.786  36.699  79.919  1.00 50.11     0.082 N 
HETATM   21  C25 OHT A 600      68.776  37.487  78.686  1.00 52.05     0.309 C 
HETATM   22  C26 OHT A 600      67.495  36.010  80.030  1.00 52.76     0.309 C 
ENDBRANCH  19  20
ENDBRANCH  18  19
ENDBRANCH  17  18
ENDBRANCH  14  17
ENDBRANCH   2  11
BRANCH   1  23
HETATM   23  C9  OHT A 600      66.876  34.416  70.553  1.00 23.31     0.036 C 
HETATM   24  C10 OHT A 600      66.145  35.711  70.324  1.00 26.22     0.010 C 
ENDBRANCH   1  23
BRANCH   1  25
HETATM   25  C11 OHT A 600      68.948  35.400  71.594  1.00 27.85    -0.029 A 
HETATM   26  C16 OHT A 600      68.751  36.790  71.456  1.00 28.59     0.012 A 
HETATM   27  C15 OHT A 600      69.841  37.654  71.347  1.00 30.60     0.001 A 
HETATM   28  C14 OHT A 600      71.135  37.172  71.367  1.00 30.44     0.000 A 
HETATM   29  C13 OHT A 600      71.346  35.820  71.499  1.00 31.30     0.001 A 
HETATM   30  C12 OHT A 600      70.261  34.944  71.612  1.00 28.04     0.012 A 
ENDBRANCH   1  25
TORSDOF 9
