REMARK  9 active torsions:
REMARK  status: ('A' for Active; 'I' for Inactive)
REMARK    1  A    between atoms: C9_2  and  C8_3 
REMARK    2  A    between atoms: C8_3  and  C11_4 
REMARK    3  A    between atoms: C7_10  and  C1_11 
REMARK    4  A    between atoms: C7_10  and  C17_19 
REMARK    5  A    between atoms: C4_14  and  O4_15 
REMARK    6  A    between atoms: C20_22  and  O20_23 
REMARK    7  A    between atoms: O20_23  and  C23_24 
REMARK    8  A    between atoms: C23_24  and  C24_25 
REMARK    9  A    between atoms: C24_25  and  N24_26 
ROOT
HETATM    1  C8  OHT A 600      67.880  34.480  71.695  1.00 25.22    -0.036 C 
HETATM    2  C7  OHT A 600      67.529  33.728  72.779  1.00 24.63    -0.009 C 
ENDROOT
BRANCH   2   3
HETATM    3  C1  OHT A 600      66.602  32.538  72.711  1.00 24.14    -0.024 A 
HETATM    4  C2  OHT A 600      66.719  31.550  71.685  1.00 26.17     0.015 A 
HETATM    5  C3  OHT A 600      65.812  30.483  71.615  1.00 26.36     0.037 A 
HETATM    6  C4  OHT A 600      64.781  30.393  72.570  1.00 29.58     0.065 A 
HETATM    7  C5  OHT A 600      64.658  31.363  73.591  1.00 27.04     0.037 A 
HETATM    8  C6  OHT A 600      65.566  32.413  73.642  1.00 25.11     0.015 A 
BRANCH   6   9
HETATM    9  O4  OHT A 600      63.900  29.358  72.469  1.00 28.95    -0.361 OA
ATOM     10  H4  OHT A 600      63.578  28.964  73.271  1.00  0.00     0.217 HD
ENDBRANCH   6   9
ENDBRANCH   2   3
BRANCH   2  11
HETATM   11  C17 OHT A 600      68.013  34.019  74.132  1.00 26.54    -0.024 A 
HETATM   12  C18 OHT A 600      67.288  34.819  75.011  1.00 26.76     0.015 A 
HETATM   13  C19 OHT A 600      67.711  35.081  76.283  1.00 28.12     0.037 A 
HETATM   14  C20 OHT A 600      68.904  34.536  76.731  1.00 28.11     0.068 A 
HETATM   15  C21 OHT A 600      69.664  33.725  75.870  1.00 26.98     0.037 A 
HETATM   16  C22 OHT A 600      69.218  33.479  74.601  1.00 27.89     0.015 A 
BRANCH  14  17
HETATM   17  O20 OHT A 600      69.381  34.717  77.997  1.00 31.97    -0.349 OA
BRANCH  17  18
HETATM   18  C23 OHT A 600      68.708  35.600  78.890  1.00 40.10     0.206 C 
BRANCH  18  19
HETATM   19  C24 OHT A 600      69.123  36.994  78.507  1.00 45.21     0.297 C 
BRANCH  19  20
HETATM   20  N24 OHT A 600      68.173  38.004  78.885  1.00 50.11     0.082 N 
HETATM   21  C25 OHT A 600      68.247  38.308  80.315  1.00 52.05     0.309 C 
HETATM   22  C26 OHT A 600      68.446  39.239  78.141  1.00 52.76     0.309 C 
ENDBRANCH  19  20
ENDBRANCH  18  19
ENDBRANCH  17  18
ENDBRANCH  14  17
ENDBRANCH   2  11
BRANCH   1  23
HETATM   23  C9  OHT A 600      67.144  34.405  70.374  1.00 23.31     0.036 C 
HETATM   24  C10 OHT A 600      66.209  35.566  70.176  1.00 26.22     0.010 C 
ENDBRANCH   1  23
BRANCH   1  25
HETATM   25  C11 OHT A 600      69.017  35.451  71.693  1.00 27.85    -0.029 A 
HETATM   26  C16 OHT A 600      68.793  36.822  71.944  1.00 28.59     0.012 A 
HETATM   27  C15 OHT A 600      69.862  37.718  71.990  1.00 30.60     0.001 A 
HETATM   28  C14 OHT A 600      71.159  37.289  71.790  1.00 30.44     0.000 A 
HETATM   29  C13 OHT A 600      71.395  35.958  71.544  1.00 31.30     0.001 A 
HETATM   30  C12 OHT A 600      70.332  35.049  71.496  1.00 28.04     0.012 A 
ENDBRANCH   1  25
TORSDOF 9
