REMARK  9 active torsions:
REMARK  status: ('A' for Active; 'I' for Inactive)
REMARK    1  A    between atoms: C9_2  and  C8_3 
REMARK    2  A    between atoms: C8_3  and  C11_4 
REMARK    3  A    between atoms: C7_10  and  C1_11 
REMARK    4  A    between atoms: C7_10  and  C17_19 
REMARK    5  A    between atoms: C4_14  and  O4_15 
REMARK    6  A    between atoms: C20_22  and  O20_23 
REMARK    7  A    between atoms: O20_23  and  C23_24 
REMARK    8  A    between atoms: C23_24  and  C24_25 
REMARK    9  A    between atoms: C24_25  and  N24_26 
ROOT
HETATM    1  C8  OHT A 600      67.912  34.477  71.920  1.00 25.22    -0.036 C 
HETATM    2  C7  OHT A 600      67.575  33.804  73.059  1.00 24.63    -0.009 C 
ENDROOT
BRANCH   2   3
HETATM    3  C1  OHT A 600      66.618  32.638  73.094  1.00 24.14    -0.024 A 
HETATM    4  C2  OHT A 600      65.226  32.813  73.373  1.00 26.17     0.015 A 
HETATM    5  C3  OHT A 600      64.368  31.707  73.451  1.00 26.36     0.037 A 
HETATM    6  C4  OHT A 600      64.892  30.415  73.252  1.00 29.58     0.065 A 
HETATM    7  C5  OHT A 600      66.265  30.230  72.973  1.00 27.04     0.037 A 
HETATM    8  C6  OHT A 600      67.099  31.339  72.901  1.00 25.11     0.015 A 
BRANCH   6   9
HETATM    9  O4  OHT A 600      64.043  29.354  73.353  1.00 28.95    -0.361 OA
ATOM     10  H4  OHT A 600      63.524  29.269  74.145  1.00  0.00     0.217 HD
ENDBRANCH   6   9
ENDBRANCH   2   3
BRANCH   2  11
HETATM   11  C17 OHT A 600      68.107  34.167  74.376  1.00 26.54    -0.024 A 
HETATM   12  C18 OHT A 600      69.248  33.559  74.895  1.00 26.76     0.015 A 
HETATM   13  C19 OHT A 600      69.773  33.902  76.109  1.00 28.12     0.037 A 
HETATM   14  C20 OHT A 600      69.160  34.891  76.862  1.00 28.11     0.068 A 
HETATM   15  C21 OHT A 600      68.005  35.524  76.370  1.00 26.98     0.037 A 
HETATM   16  C22 OHT A 600      67.501  35.163  75.153  1.00 27.89     0.015 A 
BRANCH  14  17
HETATM   17  O20 OHT A 600      69.640  35.319  78.067  1.00 31.97    -0.349 OA
BRANCH  17  18
HETATM   18  C23 OHT A 600      69.519  36.691  78.432  1.00 40.10     0.206 C 
BRANCH  18  19
HETATM   19  C24 OHT A 600      68.519  36.749  79.555  1.00 45.21     0.297 C 
BRANCH  19  20
HETATM   20  N24 OHT A 600      68.825  35.866  80.647  1.00 50.11     0.082 N 
HETATM   21  C25 OHT A 600      68.372  34.500  80.381  1.00 52.05     0.309 C 
HETATM   22  C26 OHT A 600      70.276  35.832  80.860  1.00 52.76     0.309 C 
ENDBRANCH  19  20
ENDBRANCH  18  19
ENDBRANCH  17  18
ENDBRANCH  14  17
ENDBRANCH   2  11
BRANCH   1  23
HETATM   23  C9  OHT A 600      67.134  34.337  70.627  1.00 23.31     0.036 C 
HETATM   24  C10 OHT A 600      66.167  35.471  70.420  1.00 26.22     0.010 C 
ENDBRANCH   1  23
BRANCH   1  25
HETATM   25  C11 OHT A 600      69.072  35.415  71.823  1.00 27.85    -0.029 A 
HETATM   26  C16 OHT A 600      68.911  36.789  72.099  1.00 28.59     0.012 A 
HETATM   27  C15 OHT A 600      70.005  37.654  72.056  1.00 30.60     0.001 A 
HETATM   28  C14 OHT A 600      71.267  37.190  71.741  1.00 30.44     0.000 A 
HETATM   29  C13 OHT A 600      71.441  35.855  71.468  1.00 31.30     0.001 A 
HETATM   30  C12 OHT A 600      70.353  34.976  71.510  1.00 28.04     0.012 A 
ENDBRANCH   1  25
TORSDOF 9
