REMARK  9 active torsions:
REMARK  status: ('A' for Active; 'I' for Inactive)
REMARK    1  A    between atoms: C9_2  and  C8_3 
REMARK    2  A    between atoms: C8_3  and  C11_4 
REMARK    3  A    between atoms: C7_10  and  C1_11 
REMARK    4  A    between atoms: C7_10  and  C17_19 
REMARK    5  A    between atoms: C4_14  and  O4_15 
REMARK    6  A    between atoms: C20_22  and  O20_23 
REMARK    7  A    between atoms: O20_23  and  C23_24 
REMARK    8  A    between atoms: C23_24  and  C24_25 
REMARK    9  A    between atoms: C24_25  and  N24_26 
ROOT
HETATM    1  C8  OHT A 600      67.904  34.524  71.785  1.00 25.22    -0.036 C 
HETATM    2  C7  OHT A 600      67.663  33.701  72.848  1.00 24.63    -0.009 C 
ENDROOT
BRANCH   2   3
HETATM    3  C1  OHT A 600      66.698  32.542  72.812  1.00 24.14    -0.024 A 
HETATM    4  C2  OHT A 600      66.789  31.515  71.821  1.00 26.17     0.015 A 
HETATM    5  C3  OHT A 600      65.847  30.477  71.779  1.00 26.36     0.037 A 
HETATM    6  C4  OHT A 600      64.805  30.456  72.726  1.00 29.58     0.065 A 
HETATM    7  C5  OHT A 600      64.707  31.464  73.712  1.00 27.04     0.037 A 
HETATM    8  C6  OHT A 600      65.649  32.484  73.736  1.00 25.11     0.015 A 
BRANCH   6   9
HETATM    9  O4  OHT A 600      63.890  29.448  72.652  1.00 28.95    -0.361 OA
ATOM     10  H4  OHT A 600      63.900  28.890  71.883  1.00  0.00     0.217 HD
ENDBRANCH   6   9
ENDBRANCH   2   3
BRANCH   2  11
HETATM   11  C17 OHT A 600      68.319  33.880  74.147  1.00 26.54    -0.024 A 
HETATM   12  C18 OHT A 600      69.517  33.239  74.455  1.00 26.76     0.015 A 
HETATM   13  C19 OHT A 600      70.155  33.413  75.651  1.00 28.12     0.037 A 
HETATM   14  C20 OHT A 600      69.603  34.257  76.602  1.00 28.11     0.068 A 
HETATM   15  C21 OHT A 600      68.393  34.918  76.326  1.00 26.98     0.037 A 
HETATM   16  C22 OHT A 600      67.775  34.727  75.122  1.00 27.89     0.015 A 
BRANCH  14  17
HETATM   17  O20 OHT A 600      70.193  34.515  77.806  1.00 31.97    -0.349 OA
BRANCH  17  18
HETATM   18  C23 OHT A 600      70.309  35.858  78.267  1.00 40.10     0.206 C 
BRANCH  18  19
HETATM   19  C24 OHT A 600      70.035  35.827  79.746  1.00 45.21     0.297 C 
BRANCH  19  20
HETATM   20  N24 OHT A 600      68.674  36.138  80.088  1.00 50.11     0.082 N 
HETATM   21  C25 OHT A 600      68.099  37.127  79.175  1.00 52.05     0.309 C 
HETATM   22  C26 OHT A 600      67.858  34.920  80.013  1.00 52.76     0.309 C 
ENDBRANCH  19  20
ENDBRANCH  18  19
ENDBRANCH  17  18
ENDBRANCH  14  17
ENDBRANCH   2  11
BRANCH   1  23
HETATM   23  C9  OHT A 600      67.009  34.563  70.563  1.00 23.31     0.036 C 
HETATM   24  C10 OHT A 600      66.149  35.797  70.528  1.00 26.22     0.010 C 
ENDBRANCH   1  23
BRANCH   1  25
HETATM   25  C11 OHT A 600      69.063  35.465  71.711  1.00 27.85    -0.029 A 
HETATM   26  C16 OHT A 600      68.873  36.854  71.874  1.00 28.59     0.012 A 
HETATM   27  C15 OHT A 600      69.962  37.726  71.853  1.00 30.60     0.001 A 
HETATM   28  C14 OHT A 600      71.248  37.254  71.670  1.00 30.44     0.000 A 
HETATM   29  C13 OHT A 600      71.450  35.904  71.508  1.00 31.30     0.001 A 
HETATM   30  C12 OHT A 600      70.366  35.020  71.529  1.00 28.04     0.012 A 
ENDBRANCH   1  25
TORSDOF 9
