REMARK  9 active torsions:
REMARK  status: ('A' for Active; 'I' for Inactive)
REMARK    1  A    between atoms: C9_2  and  C8_3 
REMARK    2  A    between atoms: C8_3  and  C11_4 
REMARK    3  A    between atoms: C7_10  and  C1_11 
REMARK    4  A    between atoms: C7_10  and  C17_19 
REMARK    5  A    between atoms: C4_14  and  O4_15 
REMARK    6  A    between atoms: C20_22  and  O20_23 
REMARK    7  A    between atoms: O20_23  and  C23_24 
REMARK    8  A    between atoms: C23_24  and  C24_25 
REMARK    9  A    between atoms: C24_25  and  N24_26 
ROOT
HETATM    1  C8  OHT A 600      31.363  -0.388  28.059  1.00 25.22    -0.036 C 
HETATM    2  C7  OHT A 600      30.708  -1.057  27.065  1.00 24.63    -0.009 C 
ENDROOT
BRANCH   2   3
HETATM    3  C1  OHT A 600      29.210  -1.233  27.016  1.00 24.14    -0.024 A 
HETATM    4  C2  OHT A 600      28.609  -2.490  26.695  1.00 26.17     0.015 A 
HETATM    5  C3  OHT A 600      27.215  -2.613  26.605  1.00 26.36     0.037 A 
HETATM    6  C4  OHT A 600      26.409  -1.482  26.835  1.00 29.58     0.065 A 
HETATM    7  C5  OHT A 600      26.992  -0.235  27.156  1.00 27.04     0.037 A 
HETATM    8  C6  OHT A 600      28.375  -0.134  27.239  1.00 25.11     0.015 A 
BRANCH   6   9
HETATM    9  O4  OHT A 600      25.058  -1.622  26.722  1.00 28.95    -0.361 OA
ATOM     10  H4  OHT A 600      24.514  -0.859  26.877  1.00  0.00     0.217 HD
ENDBRANCH   6   9
ENDBRANCH   2   3
BRANCH   2  11
HETATM   11  C17 OHT A 600      31.411  -1.690  25.945  1.00 26.54    -0.024 A 
HETATM   12  C18 OHT A 600      32.529  -2.496  26.146  1.00 26.76     0.015 A 
HETATM   13  C19 OHT A 600      33.182  -3.114  25.117  1.00 28.12     0.037 A 
HETATM   14  C20 OHT A 600      32.725  -2.944  23.820  1.00 28.11     0.068 A 
HETATM   15  C21 OHT A 600      31.601  -2.135  23.579  1.00 26.98     0.037 A 
HETATM   16  C22 OHT A 600      30.966  -1.528  24.626  1.00 27.89     0.015 A 
BRANCH  14  17
HETATM   17  O20 OHT A 600      33.296  -3.554  22.740  1.00 31.97    -0.349 OA
BRANCH  17  18
HETATM   18  C23 OHT A 600      32.900  -3.183  21.423  1.00 40.10     0.206 C 
BRANCH  18  19
HETATM   19  C24 OHT A 600      34.059  -3.508  20.520  1.00 45.21     0.297 C 
BRANCH  19  20
HETATM   20  N24 OHT A 600      34.109  -4.887  20.118  1.00 50.11     0.082 N 
HETATM   21  C25 OHT A 600      33.390  -5.111  18.863  1.00 52.05     0.309 C 
HETATM   22  C26 OHT A 600      35.506  -5.291  19.922  1.00 52.76     0.309 C 
ENDBRANCH  19  20
ENDBRANCH  18  19
ENDBRANCH  17  18
ENDBRANCH  14  17
ENDBRANCH   2  11
BRANCH   1  23
HETATM   23  C9  OHT A 600      30.702  -0.023  29.372  1.00 23.31     0.036 C 
HETATM   24  C10 OHT A 600      30.574   1.465  29.550  1.00 26.22     0.010 C 
ENDBRANCH   1  23
BRANCH   1  25
HETATM   25  C11 OHT A 600      32.788   0.053  27.962  1.00 27.85    -0.029 A 
HETATM   26  C16 OHT A 600      33.241   0.782  26.842  1.00 28.59     0.012 A 
HETATM   27  C15 OHT A 600      34.559   1.235  26.776  1.00 30.60     0.001 A 
HETATM   28  C14 OHT A 600      35.451   0.980  27.799  1.00 30.44     0.000 A 
HETATM   29  C13 OHT A 600      35.027   0.270  28.897  1.00 31.30     0.001 A 
HETATM   30  C12 OHT A 600      33.707  -0.188  28.976  1.00 28.04     0.012 A 
ENDBRANCH   1  25
TORSDOF 9
