OHT.pdb
  rDOCK(R)          3D
libRbt.so/2013.1/901 2013/11/27
 30 32  0  0  0  0  0  0  0  0999 V2000
   69.5346   33.3196   85.0741 C   0  0  0  0  0  0
   70.3722   34.2638   84.2561 C   0  0  0  0  0  0
   69.6805   35.5917   84.0275 C   0  0  0  0  0  0
   70.3346   36.7375   84.7302 C   0  0  0  0  0  0
   71.1726   37.6290   84.0272 C   0  0  0  0  0  0
   71.7428   38.7259   84.6739 C   0  0  0  0  0  0
   71.5055   38.9646   86.0133 C   0  0  0  0  0  0
   70.6927   38.1054   86.7138 C   0  0  0  0  0  0
   70.1132   37.0028   86.0760 C   0  0  0  0  0  0
   68.5647   35.7173   83.2504 C   0  0  0  0  0  0
   67.1686   35.8699   83.8028 C   0  0  0  0  0  0
   66.0532   35.1805   83.2329 C   0  0  0  0  0  0
   64.7584   35.3809   83.7327 C   0  0  0  0  0  0
   64.5662   36.2713   84.8060 C   0  0  0  0  0  0
   63.2961   36.4646   85.2610 O   0  0  0  0  0  0
   65.6619   36.9561   85.3792 C   0  0  0  0  0  0
   66.9363   36.7445   84.8686 C   0  0  0  0  0  0
   68.6182   35.6988   81.7854 C   0  0  0  0  0  0
   69.0425   36.8068   81.0558 C   0  0  0  0  0  0
   69.1225   36.7997   79.6917 C   0  0  0  0  0  0
   68.7744   35.6539   78.9947 C   0  0  0  0  0  0
   68.8603   35.5502   77.6358 O   0  0  0  0  0  0
   68.6836   36.7063   76.8227 C   0  0  0  0  0  0
   68.7195   36.2345   75.3943 C   0  0  0  0  0  0
   67.6196   35.3795   75.0406 N   0  0  0  0  0  0
   67.2091   35.5739   73.6492 C   0  0  0  0  0  0
   68.0148   33.9763   75.2080 C   0  0  0  0  0  0
   68.3389   34.5173   79.6978 C   0  0  0  0  0  0
   68.2678   34.5506   81.0623 C   0  0  0  0  0  0
   63.1411   37.0313   85.9910 H   0  0  0  0  0  0
  1  2  1  0  0  0
  2  3  1  0  0  0
  3  4  1  0  0  0
  3 10  1  0  0  0
  4  5  2  0  0  0
  4  9  1  0  0  0
  5  6  1  0  0  0
  6  7  2  0  0  0
  7  8  1  0  0  0
  8  9  2  0  0  0
 10 11  1  0  0  0
 10 18  1  0  0  0
 11 12  2  0  0  0
 11 17  1  0  0  0
 12 13  1  0  0  0
 13 14  2  0  0  0
 14 15  1  0  0  0
 14 16  1  0  0  0
 15 30  1  0  0  0
 16 17  2  0  0  0
 18 19  2  0  0  0
 18 29  1  0  0  0
 19 20  1  0  0  0
 20 21  2  0  0  0
 21 22  1  0  0  0
 21 28  1  0  0  0
 22 23  1  0  0  0
 23 24  1  0  0  0
 24 25  1  0  0  0
 25 26  1  0  0  0
 25 27  1  0  0  0
 28 29  2  0  0  0
M  END
>  <CHROM.0>
-66.75701471,-60.08652537,137.68732376,-170.55771913

>  <CHROM.1>
111.99205812,101.21841854,102.83285582,-138.22455616,-77.15469275,178.12934682
-30.34690757,-175.22676538,65.66918503,146.01604993,68.35398264,36.05132877
81.81841670,-1.51393377,-0.22536795,-1.69414757

>  <FORMUL>
      OHT    C26 H29 N1 O2

>  <HET>
 OHT  A 600      29

>  <HETNAM>
     OHT 4-HYDROXYTAMOXIFEN

>  <Name>
OHT.pdb

>  <RI>
0

>  <Rbt.Current_Directory>
/home/malgorzata/Desktop/rDOCK_IFD/Wyniki/5c_estrogen_receptor/IFD

>  <Rbt.Executable>
rbdock ($Id: //depot/dev/client3/rdock/2013.1/src/exe/rbdock.cxx#4 $)

>  <Rbt.Library>
libRbt.so (2013.1, Build901 2013/11/27)

>  <Rbt.Parameter_File>
/home/malgorzata/Desktop/rDock_2013.1_src/data/scripts/hard_docking.prm

>  <Rbt.Receptor>
cavity.prm

>  <SCORE>
-4.03666

>  <SCORE.INTER>
1.04858

>  <SCORE.INTER.CONST>
1

>  <SCORE.INTER.POLAR>
0

>  <SCORE.INTER.REPUL>
0

>  <SCORE.INTER.ROT>
9

>  <SCORE.INTER.VDW>
-13.3514

>  <SCORE.INTER.norm>
0.0361579

>  <SCORE.INTRA>
-5.84358

>  <SCORE.INTRA.DIHEDRAL>
-5.37324

>  <SCORE.INTRA.DIHEDRAL.0>
14.7815

>  <SCORE.INTRA.POLAR>
0

>  <SCORE.INTRA.POLAR.0>
0

>  <SCORE.INTRA.REPUL>
0

>  <SCORE.INTRA.REPUL.0>
0

>  <SCORE.INTRA.VDW>
-3.15696

>  <SCORE.INTRA.VDW.0>
-0.0652974

>  <SCORE.INTRA.norm>
-0.201503

>  <SCORE.RESTR>
0.814882

>  <SCORE.RESTR.CAVITY>
0.814882

>  <SCORE.RESTR.norm>
0.0280994

>  <SCORE.SYSTEM>
-0.0565418

>  <SCORE.SYSTEM.CONST>
0

>  <SCORE.SYSTEM.DIHEDRAL>
0.917118

>  <SCORE.SYSTEM.VDW>
-0.515101

>  <SCORE.SYSTEM.norm>
-0.00194972

>  <SCORE.heavy>
29

>  <SCORE.norm>
-0.139195

$$$$
OHT.pdb
  rDOCK(R)          3D
libRbt.so/2013.1/901 2013/11/27
 30 32  0  0  0  0  0  0  0  0999 V2000
   71.1593   33.2534   85.0466 C   0  0  0  0  0  0
   69.9556   33.7980   85.7655 C   0  0  0  0  0  0
   69.3912   35.0287   85.0866 C   0  0  0  0  0  0
   69.5927   36.2887   85.8652 C   0  0  0  0  0  0
   68.6067   36.7430   86.7666 C   0  0  0  0  0  0
   68.8176   37.8926   87.5286 C   0  0  0  0  0  0
   69.9901   38.6139   87.4185 C   0  0  0  0  0  0
   70.9609   38.1864   86.5442 C   0  0  0  0  0  0
   70.7622   37.0338   85.7759 C   0  0  0  0  0  0
   68.7597   34.9789   83.8769 C   0  0  0  0  0  0
   68.1638   33.7222   83.2910 C   0  0  0  0  0  0
   68.8130   32.9981   82.2430 C   0  0  0  0  0  0
   68.2119   31.8628   81.6806 C   0  0  0  0  0  0
   66.9574   31.4406   82.1600 C   0  0  0  0  0  0
   66.3844   30.3464   81.5839 O   0  0  0  0  0  0
   66.3078   32.1470   83.1978 C   0  0  0  0  0  0
   66.9196   33.2698   83.7405 C   0  0  0  0  0  0
   68.6140   36.1556   83.0147 C   0  0  0  0  0  0
   69.6002   36.5178   82.1003 C   0  0  0  0  0  0
   69.4712   37.5965   81.2714 C   0  0  0  0  0  0
   68.3207   38.3666   81.3294 C   0  0  0  0  0  0
   68.0958   39.4375   80.5127 O   0  0  0  0  0  0
   67.5552   40.6403   81.0511 C   0  0  0  0  0  0
   68.5789   41.1758   82.0152 C   0  0  0  0  0  0
   69.8682   41.4025   81.4217 N   0  0  0  0  0  0
   69.9726   42.7464   80.8517 C   0  0  0  0  0  0
   70.9113   41.2578   82.4436 C   0  0  0  0  0  0
   67.3054   38.0326   82.2424 C   0  0  0  0  0  0
   67.4595   36.9486   83.0604 C   0  0  0  0  0  0
   65.5922   29.9918   81.9370 H   0  0  0  0  0  0
  1  2  1  0  0  0
  2  3  1  0  0  0
  3  4  1  0  0  0
  3 10  1  0  0  0
  4  5  2  0  0  0
  4  9  1  0  0  0
  5  6  1  0  0  0
  6  7  2  0  0  0
  7  8  1  0  0  0
  8  9  2  0  0  0
 10 11  1  0  0  0
 10 18  1  0  0  0
 11 12  2  0  0  0
 11 17  1  0  0  0
 12 13  1  0  0  0
 13 14  2  0  0  0
 14 15  1  0  0  0
 14 16  1  0  0  0
 15 30  1  0  0  0
 16 17  2  0  0  0
 18 19  2  0  0  0
 18 29  1  0  0  0
 19 20  1  0  0  0
 20 21  2  0  0  0
 21 22  1  0  0  0
 21 28  1  0  0  0
 22 23  1  0  0  0
 23 24  1  0  0  0
 24 25  1  0  0  0
 25 26  1  0  0  0
 25 27  1  0  0  0
 28 29  2  0  0  0
M  END
>  <CHROM.0>
-71.60200230,-57.93632621,-83.97585847,0.40613934

>  <CHROM.1>
-110.32604513,-92.26010222,20.22465623,-103.45987537,87.01561677,173.94631721
-136.63073382,64.47759694,57.03064883,88.46840722,68.81528127,36.52319674
83.35506155,-2.00686993,-1.13664218,-0.52019024

>  <FORMUL>
      OHT    C26 H29 N1 O2

>  <HET>
 OHT  A 600      29

>  <HETNAM>
     OHT 4-HYDROXYTAMOXIFEN

>  <Name>
OHT.pdb

>  <RI>
0

>  <Rbt.Current_Directory>
/home/malgorzata/Desktop/rDOCK_IFD/Wyniki/5c_estrogen_receptor/IFD

>  <Rbt.Executable>
rbdock ($Id: //depot/dev/client3/rdock/2013.1/src/exe/rbdock.cxx#4 $)

>  <Rbt.Library>
libRbt.so (2013.1, Build901 2013/11/27)

>  <Rbt.Parameter_File>
/home/malgorzata/Desktop/rDock_2013.1_src/data/scripts/hard_docking.prm

>  <Rbt.Receptor>
cavity.prm

>  <SCORE>
-4.55549

>  <SCORE.INTER>
1.11984

>  <SCORE.INTER.CONST>
1

>  <SCORE.INTER.POLAR>
0

>  <SCORE.INTER.REPUL>
0

>  <SCORE.INTER.ROT>
9

>  <SCORE.INTER.VDW>
-13.2802

>  <SCORE.INTER.norm>
0.0386152

>  <SCORE.INTRA>
-5.67873

>  <SCORE.INTRA.DIHEDRAL>
-4.60339

>  <SCORE.INTRA.DIHEDRAL.0>
14.7815

>  <SCORE.INTRA.POLAR>
0

>  <SCORE.INTRA.POLAR.0>
0

>  <SCORE.INTRA.REPUL>
0

>  <SCORE.INTRA.REPUL.0>
0

>  <SCORE.INTRA.VDW>
-3.37703

>  <SCORE.INTRA.VDW.0>
-0.0652974

>  <SCORE.INTRA.norm>
-0.195818

>  <SCORE.RESTR>
0.174371

>  <SCORE.RESTR.CAVITY>
0.174371

>  <SCORE.RESTR.norm>
0.00601281

>  <SCORE.SYSTEM>
-0.170973

>  <SCORE.SYSTEM.CONST>
0

>  <SCORE.SYSTEM.DIHEDRAL>
0.802562

>  <SCORE.SYSTEM.VDW>
-0.572254

>  <SCORE.SYSTEM.norm>
-0.00589561

>  <SCORE.heavy>
29

>  <SCORE.norm>
-0.157086

$$$$
OHT.pdb
  rDOCK(R)          3D
libRbt.so/2013.1/901 2013/11/27
 30 32  0  0  0  0  0  0  0  0999 V2000
   71.8464   34.1760   80.5552 C   0  0  0  0  0  0
   70.7963   34.4970   81.5829 C   0  0  0  0  0  0
   69.4196   34.6436   80.9686 C   0  0  0  0  0  0
   68.4683   33.5602   81.3634 C   0  0  0  0  0  0
   68.7879   32.2044   81.1376 C   0  0  0  0  0  0
   67.9208   31.1926   81.5511 C   0  0  0  0  0  0
   66.7312   31.4907   82.1863 C   0  0  0  0  0  0
   66.4033   32.8062   82.4130 C   0  0  0  0  0  0
   67.2656   33.8300   82.0049 C   0  0  0  0  0  0
   69.0907   35.6730   80.1339 C   0  0  0  0  0  0
   68.8088   37.0790   80.6041 C   0  0  0  0  0  0
   69.4510   38.2132   80.0163 C   0  0  0  0  0  0
   69.2104   39.5045   80.5075 C   0  0  0  0  0  0
   68.3262   39.6744   81.5896 C   0  0  0  0  0  0
   68.1240   40.9368   82.0620 O   0  0  0  0  0  0
   67.6833   38.5608   82.1766 C   0  0  0  0  0  0
   67.9363   37.2899   81.6760 C   0  0  0  0  0  0
   68.9629   35.5017   78.6835 C   0  0  0  0  0  0
   67.8198   34.9490   78.1111 C   0  0  0  0  0  0
   67.6727   34.8044   76.7603 C   0  0  0  0  0  0
   68.6891   35.2210   75.9157 C   0  0  0  0  0  0
   68.6080   35.1465   74.5546 O   0  0  0  0  0  0
   67.7217   36.0088   73.8477 C   0  0  0  0  0  0
   67.8817   35.6831   72.3873 C   0  0  0  0  0  0
   67.0979   36.5190   71.5198 N   0  0  0  0  0  0
   67.6693   36.5883   70.1741 C   0  0  0  0  0  0
   65.7389   35.9762   71.4111 C   0  0  0  0  0  0
   69.8588   35.7807   76.4583 C   0  0  0  0  0  0
   69.9808   35.9141   77.8130 C   0  0  0  0  0  0
   67.5878   41.0738   82.8181 H   0  0  0  0  0  0
  1  2  1  0  0  0
  2  3  1  0  0  0
  3  4  1  0  0  0
  3 10  1  0  0  0
  4  5  2  0  0  0
  4  9  1  0  0  0
  5  6  1  0  0  0
  6  7  2  0  0  0
  7  8  1  0  0  0
  8  9  2  0  0  0
 10 11  1  0  0  0
 10 18  1  0  0  0
 11 12  2  0  0  0
 11 17  1  0  0  0
 12 13  1  0  0  0
 13 14  2  0  0  0
 14 15  1  0  0  0
 14 16  1  0  0  0
 15 30  1  0  0  0
 16 17  2  0  0  0
 18 19  2  0  0  0
 18 29  1  0  0  0
 19 20  1  0  0  0
 20 21  2  0  0  0
 21 22  1  0  0  0
 21 28  1  0  0  0
 22 23  1  0  0  0
 23 24  1  0  0  0
 24 25  1  0  0  0
 25 26  1  0  0  0
 25 27  1  0  0  0
 28 29  2  0  0  0
M  END
>  <CHROM.0>
83.75418421,-59.77927990,118.84148392,1.73376883

>  <CHROM.1>
112.05326896,-56.18257436,-76.17649087,129.35657644,79.38522184,-175.76829660
70.25538274,179.52282740,-177.03733390,155.62030272,68.40664864,35.67838973
78.50938223,0.56422400,1.44838561,2.64159382

>  <FORMUL>
      OHT    C26 H29 N1 O2

>  <HET>
 OHT  A 600      29

>  <HETNAM>
     OHT 4-HYDROXYTAMOXIFEN

>  <Name>
OHT.pdb

>  <RI>
0

>  <Rbt.Current_Directory>
/home/malgorzata/Desktop/rDOCK_IFD/Wyniki/5c_estrogen_receptor/IFD

>  <Rbt.Executable>
rbdock ($Id: //depot/dev/client3/rdock/2013.1/src/exe/rbdock.cxx#4 $)

>  <Rbt.Library>
libRbt.so (2013.1, Build901 2013/11/27)

>  <Rbt.Parameter_File>
/home/malgorzata/Desktop/rDock_2013.1_src/data/scripts/hard_docking.prm

>  <Rbt.Receptor>
cavity.prm

>  <SCORE>
-7.08341

>  <SCORE.INTER>
-1.96751

>  <SCORE.INTER.CONST>
1

>  <SCORE.INTER.POLAR>
0

>  <SCORE.INTER.REPUL>
0

>  <SCORE.INTER.ROT>
9

>  <SCORE.INTER.VDW>
-16.3675

>  <SCORE.INTER.norm>
-0.0678453

>  <SCORE.INTRA>
-5.06988

>  <SCORE.INTRA.DIHEDRAL>
-3.42204

>  <SCORE.INTRA.DIHEDRAL.0>
14.7815

>  <SCORE.INTRA.POLAR>
0

>  <SCORE.INTRA.POLAR.0>
0

>  <SCORE.INTRA.REPUL>
0

>  <SCORE.INTRA.REPUL.0>
0

>  <SCORE.INTRA.VDW>
-3.35886

>  <SCORE.INTRA.VDW.0>
-0.0652974

>  <SCORE.INTRA.norm>
-0.174823

>  <SCORE.RESTR>
0

>  <SCORE.RESTR.CAVITY>
0

>  <SCORE.RESTR.norm>
0

>  <SCORE.SYSTEM>
-0.0460186

>  <SCORE.SYSTEM.CONST>
0

>  <SCORE.SYSTEM.DIHEDRAL>
0.830746

>  <SCORE.SYSTEM.VDW>
-0.461392

>  <SCORE.SYSTEM.norm>
-0.00158685

>  <SCORE.heavy>
29

>  <SCORE.norm>
-0.244256

$$$$
OHT.pdb
  rDOCK(R)          3D
libRbt.so/2013.1/901 2013/11/27
 30 32  0  0  0  0  0  0  0  0999 V2000
   71.9013   39.5497   81.5877 C   0  0  0  0  0  0
   71.2742   38.2837   82.1036 C   0  0  0  0  0  0
   70.8613   37.3514   80.9837 C   0  0  0  0  0  0
   71.7356   36.1459   80.8539 C   0  0  0  0  0  0
   71.4065   34.9437   81.5154 C   0  0  0  0  0  0
   72.1971   33.8055   81.3537 C   0  0  0  0  0  0
   73.3187   33.8268   80.5483 C   0  0  0  0  0  0
   73.6548   34.9900   79.8973 C   0  0  0  0  0  0
   72.8688   36.1377   80.0497 C   0  0  0  0  0  0
   69.7892   37.5999   80.1753 C   0  0  0  0  0  0
   68.9482   38.8504   80.2554 C   0  0  0  0  0  0
   67.8938   38.9895   81.2110 C   0  0  0  0  0  0
   67.0936   40.1409   81.2292 C   0  0  0  0  0  0
   67.3394   41.1636   80.2936 C   0  0  0  0  0  0
   66.5355   42.2639   80.3183 O   0  0  0  0  0  0
   68.3810   41.0383   79.3463 C   0  0  0  0  0  0
   69.1614   39.8891   79.3442 C   0  0  0  0  0  0
   69.3389   36.6536   79.1501 C   0  0  0  0  0  0
   69.3633   36.9775   77.7957 C   0  0  0  0  0  0
   68.9710   36.0998   76.8246 C   0  0  0  0  0  0
   68.5327   34.8358   77.1854 C   0  0  0  0  0  0
   68.1582   33.8869   76.2777 O   0  0  0  0  0  0
   67.3588   34.2524   75.1568 C   0  0  0  0  0  0
   67.1815   33.0059   74.3327 C   0  0  0  0  0  0
   66.5122   31.9425   75.0306 N   0  0  0  0  0  0
   65.0568   32.0662   74.9373 C   0  0  0  0  0  0
   66.8989   30.6527   74.4474 C   0  0  0  0  0  0
   68.4918   34.4750   78.5433 C   0  0  0  0  0  0
   68.8897   35.3717   79.4949 C   0  0  0  0  0  0
   66.6449   42.9385   79.6772 H   0  0  0  0  0  0
  1  2  1  0  0  0
  2  3  1  0  0  0
  3  4  1  0  0  0
  3 10  1  0  0  0
  4  5  2  0  0  0
  4  9  1  0  0  0
  5  6  1  0  0  0
  6  7  2  0  0  0
  7  8  1  0  0  0
  8  9  2  0  0  0
 10 11  1  0  0  0
 10 18  1  0  0  0
 11 12  2  0  0  0
 11 17  1  0  0  0
 12 13  1  0  0  0
 13 14  2  0  0  0
 14 15  1  0  0  0
 14 16  1  0  0  0
 15 30  1  0  0  0
 16 17  2  0  0  0
 18 19  2  0  0  0
 18 29  1  0  0  0
 19 20  1  0  0  0
 20 21  2  0  0  0
 21 22  1  0  0  0
 21 28  1  0  0  0
 22 23  1  0  0  0
 23 24  1  0  0  0
 24 25  1  0  0  0
 25 26  1  0  0  0
 25 27  1  0  0  0
 28 29  2  0  0  0
M  END
>  <CHROM.0>
103.71770226,-178.62660980,-113.53415520,3.33228956

>  <CHROM.1>
107.39290796,92.67149190,3.35261265,-82.46819539,-116.67607772,-176.58421156
-42.52638866,177.42536612,61.05170476,85.51549021,69.21183481,36.35760196
78.90337053,-1.23459170,0.58137691,-2.64298731

>  <FORMUL>
      OHT    C26 H29 N1 O2

>  <HET>
 OHT  A 600      29

>  <HETNAM>
     OHT 4-HYDROXYTAMOXIFEN

>  <Name>
OHT.pdb

>  <RI>
0

>  <Rbt.Current_Directory>
/home/malgorzata/Desktop/rDOCK_IFD/Wyniki/5c_estrogen_receptor/IFD

>  <Rbt.Executable>
rbdock ($Id: //depot/dev/client3/rdock/2013.1/src/exe/rbdock.cxx#4 $)

>  <Rbt.Library>
libRbt.so (2013.1, Build901 2013/11/27)

>  <Rbt.Parameter_File>
/home/malgorzata/Desktop/rDock_2013.1_src/data/scripts/hard_docking.prm

>  <Rbt.Receptor>
cavity.prm

>  <SCORE>
-4.1848

>  <SCORE.INTER>
0.152997

>  <SCORE.INTER.CONST>
1

>  <SCORE.INTER.POLAR>
0

>  <SCORE.INTER.REPUL>
0

>  <SCORE.INTER.ROT>
9

>  <SCORE.INTER.VDW>
-14.247

>  <SCORE.INTER.norm>
0.00527575

>  <SCORE.INTRA>
-6.03258

>  <SCORE.INTRA.DIHEDRAL>
-4.84233

>  <SCORE.INTRA.DIHEDRAL.0>
14.7815

>  <SCORE.INTRA.POLAR>
0

>  <SCORE.INTRA.POLAR.0>
0

>  <SCORE.INTRA.REPUL>
0

>  <SCORE.INTRA.REPUL.0>
0

>  <SCORE.INTRA.VDW>
-3.61142

>  <SCORE.INTRA.VDW.0>
-0.0652974

>  <SCORE.INTRA.norm>
-0.20802

>  <SCORE.RESTR>
1.71772

>  <SCORE.RESTR.CAVITY>
1.71772

>  <SCORE.RESTR.norm>
0.0592318

>  <SCORE.SYSTEM>
-0.0229406

>  <SCORE.SYSTEM.CONST>
0

>  <SCORE.SYSTEM.DIHEDRAL>
0.847361

>  <SCORE.SYSTEM.VDW>
-0.446621

>  <SCORE.SYSTEM.norm>
-0.000791055

>  <SCORE.heavy>
29

>  <SCORE.norm>
-0.144304

$$$$
OHT.pdb
  rDOCK(R)          3D
libRbt.so/2013.1/901 2013/11/27
 30 32  0  0  0  0  0  0  0  0999 V2000
   69.6312   37.9060   77.6446 C   0  0  0  0  0  0
   70.5984   37.2427   78.5862 C   0  0  0  0  0  0
   69.9227   36.2172   79.4727 C   0  0  0  0  0  0
   69.6205   36.7193   80.8479 C   0  0  0  0  0  0
   68.3583   37.2729   81.1505 C   0  0  0  0  0  0
   68.0613   37.6959   82.4465 C   0  0  0  0  0  0
   68.9919   37.5873   83.4611 C   0  0  0  0  0  0
   70.2270   37.0516   83.1837 C   0  0  0  0  0  0
   70.5363   36.6218   81.8883 C   0  0  0  0  0  0
   69.6233   34.9556   79.0444 C   0  0  0  0  0  0
   70.0239   33.7008   79.7808 C   0  0  0  0  0  0
   71.3022   33.0899   79.5888 C   0  0  0  0  0  0
   71.6290   31.8951   80.2462 C   0  0  0  0  0  0
   70.6821   31.3000   81.1012 C   0  0  0  0  0  0
   71.0155   30.1287   81.7131 O   0  0  0  0  0  0
   69.4164   31.8966   81.3010 C   0  0  0  0  0  0
   69.1119   33.0795   80.6394 C   0  0  0  0  0  0
   68.8880   34.6987   77.8023 C   0  0  0  0  0  0
   67.5290   34.9808   77.6861 C   0  0  0  0  0  0
   66.8329   34.7713   76.5291 C   0  0  0  0  0  0
   67.4906   34.2620   75.4209 C   0  0  0  0  0  0
   66.8793   34.0574   74.2172 O   0  0  0  0  0  0
   67.2813   34.8132   73.0787 C   0  0  0  0  0  0
   66.3210   34.4659   71.9735 C   0  0  0  0  0  0
   66.6749   35.0335   70.7013 N   0  0  0  0  0  0
   66.1836   34.2180   69.5897 C   0  0  0  0  0  0
   66.0864   36.3723   70.5802 C   0  0  0  0  0  0
   68.8616   33.9627   75.5024 C   0  0  0  0  0  0
   69.5346   34.1816   76.6716 C   0  0  0  0  0  0
   70.4011   29.7044   82.2792 H   0  0  0  0  0  0
  1  2  1  0  0  0
  2  3  1  0  0  0
  3  4  1  0  0  0
  3 10  1  0  0  0
  4  5  2  0  0  0
  4  9  1  0  0  0
  5  6  1  0  0  0
  6  7  2  0  0  0
  7  8  1  0  0  0
  8  9  2  0  0  0
 10 11  1  0  0  0
 10 18  1  0  0  0
 11 12  2  0  0  0
 11 17  1  0  0  0
 12 13  1  0  0  0
 13 14  2  0  0  0
 14 15  1  0  0  0
 14 16  1  0  0  0
 15 30  1  0  0  0
 16 17  2  0  0  0
 18 19  2  0  0  0
 18 29  1  0  0  0
 19 20  1  0  0  0
 20 21  2  0  0  0
 21 22  1  0  0  0
 21 28  1  0  0  0
 22 23  1  0  0  0
 23 24  1  0  0  0
 24 25  1  0  0  0
 25 26  1  0  0  0
 25 27  1  0  0  0
 28 29  2  0  0  0
M  END
>  <CHROM.0>
-77.33249653,58.04805272,-132.78986330,2.70911957

>  <CHROM.1>
-99.91532121,93.95667385,127.90711015,-85.71253072,-71.40065628,-179.24199521
114.87948857,-173.67544754,-173.45218036,152.12279236,68.83573148,34.81394672
77.86359987,0.56182407,-1.17713893,0.60683856

>  <FORMUL>
      OHT    C26 H29 N1 O2

>  <HET>
 OHT  A 600      29

>  <HETNAM>
     OHT 4-HYDROXYTAMOXIFEN

>  <Name>
OHT.pdb

>  <RI>
0

>  <Rbt.Current_Directory>
/home/malgorzata/Desktop/rDOCK_IFD/Wyniki/5c_estrogen_receptor/IFD

>  <Rbt.Executable>
rbdock ($Id: //depot/dev/client3/rdock/2013.1/src/exe/rbdock.cxx#4 $)

>  <Rbt.Library>
libRbt.so (2013.1, Build901 2013/11/27)

>  <Rbt.Parameter_File>
/home/malgorzata/Desktop/rDock_2013.1_src/data/scripts/hard_docking.prm

>  <Rbt.Receptor>
cavity.prm

>  <SCORE>
-2.54455

>  <SCORE.INTER>
2.72268

>  <SCORE.INTER.CONST>
1

>  <SCORE.INTER.POLAR>
0

>  <SCORE.INTER.REPUL>
0

>  <SCORE.INTER.ROT>
9

>  <SCORE.INTER.VDW>
-11.6773

>  <SCORE.INTER.norm>
0.0938856

>  <SCORE.INTRA>
-5.07889

>  <SCORE.INTRA.DIHEDRAL>
-2.25863

>  <SCORE.INTRA.DIHEDRAL.0>
14.7815

>  <SCORE.INTRA.POLAR>
0

>  <SCORE.INTRA.POLAR.0>
0

>  <SCORE.INTRA.REPUL>
0

>  <SCORE.INTRA.REPUL.0>
0

>  <SCORE.INTRA.VDW>
-3.94957

>  <SCORE.INTRA.VDW.0>
-0.0652974

>  <SCORE.INTRA.norm>
-0.175134

>  <SCORE.RESTR>
0

>  <SCORE.RESTR.CAVITY>
0

>  <SCORE.RESTR.norm>
0

>  <SCORE.SYSTEM>
-0.188343

>  <SCORE.SYSTEM.CONST>
0

>  <SCORE.SYSTEM.DIHEDRAL>
0.808786

>  <SCORE.SYSTEM.REPUL>
0.00441115

>  <SCORE.SYSTEM.VDW>
-0.614792

>  <SCORE.SYSTEM.norm>
-0.0064946

>  <SCORE.heavy>
29

>  <SCORE.norm>
-0.0877431

$$$$
OHT.pdb
  rDOCK(R)          3D
libRbt.so/2013.1/901 2013/11/27
 30 32  0  0  0  0  0  0  0  0999 V2000
   72.0122   36.2980   80.5056 C   0  0  0  0  0  0
   70.8192   36.4653   81.4062 C   0  0  0  0  0  0
   69.5221   36.5503   80.6288 C   0  0  0  0  0  0
   68.8833   37.9010   80.6739 C   0  0  0  0  0  0
   67.9744   38.2332   81.7008 C   0  0  0  0  0  0
   67.4169   39.5104   81.7692 C   0  0  0  0  0  0
   67.7363   40.4770   80.8359 C   0  0  0  0  0  0
   68.6190   40.1701   79.8279 C   0  0  0  0  0  0
   69.1865   38.8933   79.7497 C   0  0  0  0  0  0
   68.9960   35.4859   79.9543 C   0  0  0  0  0  0
   68.5594   34.2029   80.6181 C   0  0  0  0  0  0
   67.4067   34.1453   81.4620 C   0  0  0  0  0  0
   67.0535   32.9520   82.1084 C   0  0  0  0  0  0
   67.8482   31.8058   81.9175 C   0  0  0  0  0  0
   67.4960   30.6634   82.5722 O   0  0  0  0  0  0
   68.9883   31.8502   81.0832 C   0  0  0  0  0  0
   69.3217   33.0425   80.4530 C   0  0  0  0  0  0
   68.8189   35.4844   78.4990 C   0  0  0  0  0  0
   67.6828   34.9434   77.9019 C   0  0  0  0  0  0
   67.4891   34.9553   76.5493 C   0  0  0  0  0  0
   68.4486   35.5257   75.7285 C   0  0  0  0  0  0
   68.3169   35.6120   74.3721 O   0  0  0  0  0  0
   67.4589   34.7078   73.6828 C   0  0  0  0  0  0
   67.4680   35.1265   72.2375 C   0  0  0  0  0  0
   66.9779   36.4600   72.0195 N   0  0  0  0  0  0
   67.5579   37.0595   70.8168 C   0  0  0  0  0  0
   65.5201   36.4266   71.8552 C   0  0  0  0  0  0
   69.6096   36.0789   76.2960 C   0  0  0  0  0  0
   69.7791   36.0540   77.6519 C   0  0  0  0  0  0
   67.9766   29.8724   82.4259 H   0  0  0  0  0  0
  1  2  1  0  0  0
  2  3  1  0  0  0
  3  4  1  0  0  0
  3 10  1  0  0  0
  4  5  2  0  0  0
  4  9  1  0  0  0
  5  6  1  0  0  0
  6  7  2  0  0  0
  7  8  1  0  0  0
  8  9  2  0  0  0
 10 11  1  0  0  0
 10 18  1  0  0  0
 11 12  2  0  0  0
 11 17  1  0  0  0
 12 13  1  0  0  0
 13 14  2  0  0  0
 14 15  1  0  0  0
 14 16  1  0  0  0
 15 30  1  0  0  0
 16 17  2  0  0  0
 18 19  2  0  0  0
 18 29  1  0  0  0
 19 20  1  0  0  0
 20 21  2  0  0  0
 21 22  1  0  0  0
 21 28  1  0  0  0
 22 23  1  0  0  0
 23 24  1  0  0  0
 24 25  1  0  0  0
 25 26  1  0  0  0
 25 27  1  0  0  0
 28 29  2  0  0  0
M  END
>  <CHROM.0>
131.04595678,-176.67973801,106.83786999,177.63239373

>  <CHROM.1>
-111.14056675,-89.03150439,62.17461875,69.86435926,-139.61764750,176.45649919
-23.53709491,176.26695443,-61.08417268,152.84520999,68.36599877,35.72823050
78.34136566,-0.71259845,-1.37645770,-0.59008807

>  <FORMUL>
      OHT    C26 H29 N1 O2

>  <HET>
 OHT  A 600      29

>  <HETNAM>
     OHT 4-HYDROXYTAMOXIFEN

>  <Name>
OHT.pdb

>  <RI>
0

>  <Rbt.Current_Directory>
/home/malgorzata/Desktop/rDOCK_IFD/Wyniki/5c_estrogen_receptor/IFD

>  <Rbt.Executable>
rbdock ($Id: //depot/dev/client3/rdock/2013.1/src/exe/rbdock.cxx#4 $)

>  <Rbt.Library>
libRbt.so (2013.1, Build901 2013/11/27)

>  <Rbt.Parameter_File>
/home/malgorzata/Desktop/rDock_2013.1_src/data/scripts/hard_docking.prm

>  <Rbt.Receptor>
cavity.prm

>  <SCORE>
-8.38248

>  <SCORE.INTER>
-2.35398

>  <SCORE.INTER.CONST>
1

>  <SCORE.INTER.POLAR>
0

>  <SCORE.INTER.REPUL>
0

>  <SCORE.INTER.ROT>
9

>  <SCORE.INTER.VDW>
-16.754

>  <SCORE.INTER.norm>
-0.0811717

>  <SCORE.INTRA>
-6.25297

>  <SCORE.INTRA.DIHEDRAL>
-6.89729

>  <SCORE.INTRA.DIHEDRAL.0>
14.7815

>  <SCORE.INTRA.POLAR>
0

>  <SCORE.INTRA.POLAR.0>
0

>  <SCORE.INTRA.REPUL>
0

>  <SCORE.INTRA.REPUL.0>
0

>  <SCORE.INTRA.VDW>
-2.80433

>  <SCORE.INTRA.VDW.0>
-0.0652974

>  <SCORE.INTRA.norm>
-0.21562

>  <SCORE.RESTR>
0.164034

>  <SCORE.RESTR.CAVITY>
0.164034

>  <SCORE.RESTR.norm>
0.00565635

>  <SCORE.SYSTEM>
0.0604399

>  <SCORE.SYSTEM.CONST>
0

>  <SCORE.SYSTEM.DIHEDRAL>
0.850938

>  <SCORE.SYSTEM.VDW>
-0.365029

>  <SCORE.SYSTEM.norm>
0.00208413

>  <SCORE.heavy>
29

>  <SCORE.norm>
-0.289051

$$$$
OHT.pdb
  rDOCK(R)          3D
libRbt.so/2013.1/901 2013/11/27
 30 32  0  0  0  0  0  0  0  0999 V2000
   64.6514   33.4945   84.7630 C   0  0  0  0  0  0
   66.0276   33.3002   85.3379 C   0  0  0  0  0  0
   67.0626   34.1676   84.6520 C   0  0  0  0  0  0
   67.4021   35.4098   85.4110 C   0  0  0  0  0  0
   68.5176   35.4432   86.2746 C   0  0  0  0  0  0
   68.8615   36.6178   86.9443 C   0  0  0  0  0  0
   68.1207   37.7720   86.7825 C   0  0  0  0  0  0
   67.0300   37.7570   85.9461 C   0  0  0  0  0  0
   66.6759   36.5857   85.2671 C   0  0  0  0  0  0
   67.6250   33.8352   83.4529 C   0  0  0  0  0  0
   67.7794   32.4168   82.9614 C   0  0  0  0  0  0
   69.0555   31.7746   82.9017 C   0  0  0  0  0  0
   69.1774   30.4741   82.3915 C   0  0  0  0  0  0
   68.0263   29.8035   81.9367 C   0  0  0  0  0  0
   68.1733   28.5481   81.4267 O   0  0  0  0  0  0
   66.7592   30.4273   81.9937 C   0  0  0  0  0  0
   66.6601   31.7166   82.5015 C   0  0  0  0  0  0
   68.1540   34.8395   82.5251 C   0  0  0  0  0  0
   68.9743   35.8771   82.9615 C   0  0  0  0  0  0
   69.4965   36.8076   82.1079 C   0  0  0  0  0  0
   69.2104   36.7273   80.7545 C   0  0  0  0  0  0
   69.7202   37.5932   79.8298 O   0  0  0  0  0  0
   69.7704   37.2174   78.4568 C   0  0  0  0  0  0
   70.1418   38.4561   77.6874 C   0  0  0  0  0  0
   69.1787   39.5170   77.8008 N   0  0  0  0  0  0
   69.5466   40.4720   78.8471 C   0  0  0  0  0  0
   69.0961   40.2433   76.5285 C   0  0  0  0  0  0
   68.3836   35.6951   80.2784 C   0  0  0  0  0  0
   67.8739   34.7771   81.1534 C   0  0  0  0  0  0
   68.7817   28.3933   80.7311 H   0  0  0  0  0  0
  1  2  1  0  0  0
  2  3  1  0  0  0
  3  4  1  0  0  0
  3 10  1  0  0  0
  4  5  2  0  0  0
  4  9  1  0  0  0
  5  6  1  0  0  0
  6  7  2  0  0  0
  7  8  1  0  0  0
  8  9  2  0  0  0
 10 11  1  0  0  0
 10 18  1  0  0  0
 11 12  2  0  0  0
 11 17  1  0  0  0
 12 13  1  0  0  0
 13 14  2  0  0  0
 14 15  1  0  0  0
 14 16  1  0  0  0
 15 30  1  0  0  0
 16 17  2  0  0  0
 18 19  2  0  0  0
 18 29  1  0  0  0
 19 20  1  0  0  0
 20 21  2  0  0  0
 21 22  1  0  0  0
 21 28  1  0  0  0
 22 23  1  0  0  0
 23 24  1  0  0  0
 24 25  1  0  0  0
 25 26  1  0  0  0
 25 27  1  0  0  0
 28 29  2  0  0  0
M  END
>  <CHROM.0>
-73.96461506,-58.90404858,161.97499159,-176.08527779

>  <CHROM.1>
99.69852253,95.24057185,-27.27146357,-108.16748861,46.30917061,-54.06816472
158.85316444,170.06175611,-62.25339036,95.74078015,68.19157373,35.13026426
82.31067583,2.65327109,-1.29730974,-2.73084001

>  <FORMUL>
      OHT    C26 H29 N1 O2

>  <HET>
 OHT  A 600      29

>  <HETNAM>
     OHT 4-HYDROXYTAMOXIFEN

>  <Name>
OHT.pdb

>  <RI>
0

>  <Rbt.Current_Directory>
/home/malgorzata/Desktop/rDOCK_IFD/Wyniki/5c_estrogen_receptor/IFD

>  <Rbt.Executable>
rbdock ($Id: //depot/dev/client3/rdock/2013.1/src/exe/rbdock.cxx#4 $)

>  <Rbt.Library>
libRbt.so (2013.1, Build901 2013/11/27)

>  <Rbt.Parameter_File>
/home/malgorzata/Desktop/rDock_2013.1_src/data/scripts/hard_docking.prm

>  <Rbt.Receptor>
cavity.prm

>  <SCORE>
-1.67597

>  <SCORE.INTER>
-0.658454

>  <SCORE.INTER.CONST>
1

>  <SCORE.INTER.POLAR>
0

>  <SCORE.INTER.REPUL>
0.00289836

>  <SCORE.INTER.ROT>
9

>  <SCORE.INTER.VDW>
-15.0729

>  <SCORE.INTER.norm>
-0.0227053

>  <SCORE.INTRA>
-2.67033

>  <SCORE.INTRA.DIHEDRAL>
-2.02325

>  <SCORE.INTRA.DIHEDRAL.0>
14.7815

>  <SCORE.INTRA.POLAR>
0

>  <SCORE.INTRA.POLAR.0>
0

>  <SCORE.INTRA.REPUL>
0

>  <SCORE.INTRA.REPUL.0>
0

>  <SCORE.INTRA.VDW>
-1.65871

>  <SCORE.INTRA.VDW.0>
-0.0652974

>  <SCORE.INTRA.norm>
-0.0920804

>  <SCORE.RESTR>
1.76284

>  <SCORE.RESTR.CAVITY>
1.76284

>  <SCORE.RESTR.norm>
0.0607877

>  <SCORE.SYSTEM>
-0.110026

>  <SCORE.SYSTEM.CONST>
0

>  <SCORE.SYSTEM.DIHEDRAL>
0.807537

>  <SCORE.SYSTEM.VDW>
-0.513794

>  <SCORE.SYSTEM.norm>
-0.003794

>  <SCORE.heavy>
29

>  <SCORE.norm>
-0.057792

$$$$
OHT.pdb
  rDOCK(R)          3D
libRbt.so/2013.1/901 2013/11/27
 30 32  0  0  0  0  0  0  0  0999 V2000
   71.6927   36.1224   81.3036 C   0  0  0  0  0  0
   71.2480   36.9151   80.1052 C   0  0  0  0  0  0
   69.7525   36.8261   79.8824 C   0  0  0  0  0  0
   69.0037   38.0323   80.3502 C   0  0  0  0  0  0
   68.2759   38.0035   81.5587 C   0  0  0  0  0  0
   67.6181   39.1450   82.0181 C   0  0  0  0  0  0
   67.6595   40.3261   81.3037 C   0  0  0  0  0  0
   68.3628   40.3716   80.1235 C   0  0  0  0  0  0
   69.0285   39.2341   79.6530 C   0  0  0  0  0  0
   69.1563   35.7405   79.3073 C   0  0  0  0  0  0
   68.9785   34.4128   80.0024 C   0  0  0  0  0  0
   67.9541   34.2041   80.9777 C   0  0  0  0  0  0
   67.8441   32.9765   81.6466 C   0  0  0  0  0  0
   68.7559   31.9466   81.3472 C   0  0  0  0  0  0
   68.6411   30.7697   82.0248 O   0  0  0  0  0  0
   69.7707   32.1406   80.3826 C   0  0  0  0  0  0
   69.8633   33.3646   79.7322 C   0  0  0  0  0  0
   68.6407   35.7591   77.9351 C   0  0  0  0  0  0
   69.0719   36.7023   77.0054 C   0  0  0  0  0  0
   68.6212   36.7198   75.7155 C   0  0  0  0  0  0
   67.7027   35.7684   75.3017 C   0  0  0  0  0  0
   67.2296   35.6923   74.0230 O   0  0  0  0  0  0
   67.9875   36.2451   72.9511 C   0  0  0  0  0  0
   69.1460   35.3128   72.7207 C   0  0  0  0  0  0
   70.0141   35.7236   71.6514 N   0  0  0  0  0  0
   71.3646   35.1831   71.8131 C   0  0  0  0  0  0
   69.4798   35.2418   70.3725 C   0  0  0  0  0  0
   67.2429   34.8027   76.2136 C   0  0  0  0  0  0
   67.7095   34.8072   77.4982 C   0  0  0  0  0  0
   67.9426   30.6479   82.6374 H   0  0  0  0  0  0
  1  2  1  0  0  0
  2  3  1  0  0  0
  3  4  1  0  0  0
  3 10  1  0  0  0
  4  5  2  0  0  0
  4  9  1  0  0  0
  5  6  1  0  0  0
  6  7  2  0  0  0
  7  8  1  0  0  0
  8  9  2  0  0  0
 10 11  1  0  0  0
 10 18  1  0  0  0
 11 12  2  0  0  0
 11 17  1  0  0  0
 12 13  1  0  0  0
 13 14  2  0  0  0
 14 15  1  0  0  0
 14 16  1  0  0  0
 15 30  1  0  0  0
 16 17  2  0  0  0
 18 19  2  0  0  0
 18 29  1  0  0  0
 19 20  1  0  0  0
 20 21  2  0  0  0
 21 22  1  0  0  0
 21 28  1  0  0  0
 22 23  1  0  0  0
 23 24  1  0  0  0
 24 25  1  0  0  0
 25 26  1  0  0  0
 25 27  1  0  0  0
 28 29  2  0  0  0
M  END
>  <CHROM.0>
-77.91667095,-179.59348647,-117.85291712,178.91850314

>  <CHROM.1>
101.72406853,-103.19798453,73.35249206,77.57001562,20.03537321,3.13352417
23.03053548,73.88212894,179.49425544,155.41850897,68.91433897,35.76318151
78.00541584,2.07614003,-1.50668966,2.06138126

>  <FORMUL>
      OHT    C26 H29 N1 O2

>  <HET>
 OHT  A 600      29

>  <HETNAM>
     OHT 4-HYDROXYTAMOXIFEN

>  <Name>
OHT.pdb

>  <RI>
0

>  <Rbt.Current_Directory>
/home/malgorzata/Desktop/rDOCK_IFD/Wyniki/5c_estrogen_receptor/IFD

>  <Rbt.Executable>
rbdock ($Id: //depot/dev/client3/rdock/2013.1/src/exe/rbdock.cxx#4 $)

>  <Rbt.Library>
libRbt.so (2013.1, Build901 2013/11/27)

>  <Rbt.Parameter_File>
/home/malgorzata/Desktop/rDock_2013.1_src/data/scripts/hard_docking.prm

>  <Rbt.Receptor>
cavity.prm

>  <SCORE>
-5.09334

>  <SCORE.INTER>
-0.363865

>  <SCORE.INTER.CONST>
1

>  <SCORE.INTER.POLAR>
0

>  <SCORE.INTER.REPUL>
0

>  <SCORE.INTER.ROT>
9

>  <SCORE.INTER.VDW>
-14.7639

>  <SCORE.INTER.norm>
-0.0125471

>  <SCORE.INTRA>
-4.73045

>  <SCORE.INTRA.DIHEDRAL>
-5.70686

>  <SCORE.INTRA.DIHEDRAL.0>
14.7815

>  <SCORE.INTRA.POLAR>
0

>  <SCORE.INTRA.POLAR.0>
0

>  <SCORE.INTRA.REPUL>
0

>  <SCORE.INTRA.REPUL.0>
0

>  <SCORE.INTRA.VDW>
-1.87703

>  <SCORE.INTRA.VDW.0>
-0.0652974

>  <SCORE.INTRA.norm>
-0.163119

>  <SCORE.RESTR>
0.165064

>  <SCORE.RESTR.CAVITY>
0.165064

>  <SCORE.RESTR.norm>
0.00569185

>  <SCORE.SYSTEM>
-0.164082

>  <SCORE.SYSTEM.CONST>
0

>  <SCORE.SYSTEM.DIHEDRAL>
0.779623

>  <SCORE.SYSTEM.VDW>
-0.553894

>  <SCORE.SYSTEM.norm>
-0.00565801

>  <SCORE.heavy>
29

>  <SCORE.norm>
-0.175632

$$$$
OHT.pdb
  rDOCK(R)          3D
libRbt.so/2013.1/901 2013/11/27
 30 32  0  0  0  0  0  0  0  0999 V2000
   72.0371   36.3161   80.5321 C   0  0  0  0  0  0
   70.8560   36.5124   81.4424 C   0  0  0  0  0  0
   69.5551   36.6302   80.6756 C   0  0  0  0  0  0
   68.9646   38.0031   80.7037 C   0  0  0  0  0  0
   69.2516   38.9310   79.6801 C   0  0  0  0  0  0
   68.6608   40.1949   79.6821 C   0  0  0  0  0  0
   67.7863   40.5699   80.6831 C   0  0  0  0  0  0
   67.4965   39.6790   81.6889 C   0  0  0  0  0  0
   68.0810   38.4075   81.6970 C   0  0  0  0  0  0
   68.9854   35.5739   80.0241 C   0  0  0  0  0  0
   68.4798   34.3325   80.7174 C   0  0  0  0  0  0
   69.1374   33.0706   80.5777 C   0  0  0  0  0  0
   68.6164   31.9219   81.1906 C   0  0  0  0  0  0
   67.4344   32.0234   81.9484 C   0  0  0  0  0  0
   66.9367   30.8894   82.5176 O   0  0  0  0  0  0
   66.7775   33.2662   82.0959 C   0  0  0  0  0  0
   67.3093   34.3919   81.4796 C   0  0  0  0  0  0
   68.8246   35.5402   78.5673 C   0  0  0  0  0  0
   67.7078   34.9619   77.9688 C   0  0  0  0  0  0
   67.5289   34.9432   76.6142 C   0  0  0  0  0  0
   68.4843   35.5195   75.7927 C   0  0  0  0  0  0
   68.3657   35.5765   74.4336 O   0  0  0  0  0  0
   67.4314   34.7336   73.7661 C   0  0  0  0  0  0
   67.4748   35.1143   72.3110 C   0  0  0  0  0  0
   67.0233   36.4538   72.0507 N   0  0  0  0  0  0
   67.6119   36.9944   70.8245 C   0  0  0  0  0  0
   65.5640   36.4590   71.8972 C   0  0  0  0  0  0
   69.6261   36.1100   76.3616 C   0  0  0  0  0  0
   69.7810   36.1152   77.7195 C   0  0  0  0  0  0
   66.1139   30.9121   82.9652 H   0  0  0  0  0  0
  1  2  1  0  0  0
  2  3  1  0  0  0
  3  4  1  0  0  0
  3 10  1  0  0  0
  4  5  2  0  0  0
  4  9  1  0  0  0
  5  6  1  0  0  0
  6  7  2  0  0  0
  7  8  1  0  0  0
  8  9  2  0  0  0
 10 11  1  0  0  0
 10 18  1  0  0  0
 11 12  2  0  0  0
 11 17  1  0  0  0
 12 13  1  0  0  0
 13 14  2  0  0  0
 14 15  1  0  0  0
 14 16  1  0  0  0
 15 30  1  0  0  0
 16 17  2  0  0  0
 18 19  2  0  0  0
 18 29  1  0  0  0
 19 20  1  0  0  0
 20 21  2  0  0  0
 21 22  1  0  0  0
 21 28  1  0  0  0
 22 23  1  0  0  0
 23 24  1  0  0  0
 24 25  1  0  0  0
 25 26  1  0  0  0
 25 27  1  0  0  0
 28 29  2  0  0  0
M  END
>  <CHROM.0>
-74.55448750,-179.88274839,-132.57373137,179.13223229

>  <CHROM.1>
-109.98387097,92.84381975,63.73857090,-110.21247223,-143.72549448,-174.75872362
-16.97775180,175.78255236,-64.71630182,154.29871385,68.31966133,35.80316773
78.36863293,-0.98525496,-1.33904009,-0.88762250

>  <FORMUL>
      OHT    C26 H29 N1 O2

>  <HET>
 OHT  A 600      29

>  <HETNAM>
     OHT 4-HYDROXYTAMOXIFEN

>  <Name>
OHT.pdb

>  <RI>
0

>  <Rbt.Current_Directory>
/home/malgorzata/Desktop/rDOCK_IFD/Wyniki/5c_estrogen_receptor/IFD

>  <Rbt.Executable>
rbdock ($Id: //depot/dev/client3/rdock/2013.1/src/exe/rbdock.cxx#4 $)

>  <Rbt.Library>
libRbt.so (2013.1, Build901 2013/11/27)

>  <Rbt.Parameter_File>
/home/malgorzata/Desktop/rDock_2013.1_src/data/scripts/hard_docking.prm

>  <Rbt.Receptor>
cavity.prm

>  <SCORE>
-8.81381

>  <SCORE.INTER>
-2.77976

>  <SCORE.INTER.CONST>
1

>  <SCORE.INTER.POLAR>
0

>  <SCORE.INTER.REPUL>
0

>  <SCORE.INTER.ROT>
9

>  <SCORE.INTER.VDW>
-17.1798

>  <SCORE.INTER.norm>
-0.0958539

>  <SCORE.INTRA>
-6.17447

>  <SCORE.INTRA.DIHEDRAL>
-7.13541

>  <SCORE.INTRA.DIHEDRAL.0>
14.7815

>  <SCORE.INTRA.POLAR>
0

>  <SCORE.INTRA.POLAR.0>
0

>  <SCORE.INTRA.REPUL>
0

>  <SCORE.INTRA.REPUL.0>
0

>  <SCORE.INTRA.VDW>
-2.60676

>  <SCORE.INTRA.VDW.0>
-0.0652974

>  <SCORE.INTRA.norm>
-0.212913

>  <SCORE.RESTR>
0.299155

>  <SCORE.RESTR.CAVITY>
0.299155

>  <SCORE.RESTR.norm>
0.0103157

>  <SCORE.SYSTEM>
-0.15874

>  <SCORE.SYSTEM.CONST>
0

>  <SCORE.SYSTEM.DIHEDRAL>
0.782777

>  <SCORE.SYSTEM.VDW>
-0.550128

>  <SCORE.SYSTEM.norm>
-0.00547378

>  <SCORE.heavy>
29

>  <SCORE.norm>
-0.303925

$$$$
OHT.pdb
  rDOCK(R)          3D
libRbt.so/2013.1/901 2013/11/27
 30 32  0  0  0  0  0  0  0  0999 V2000
   68.1451   35.6230   73.0381 C   0  0  0  0  0  0
   67.2277   35.3850   74.2059 C   0  0  0  0  0  0
   67.6102   34.1479   74.9918 C   0  0  0  0  0  0
   66.6715   33.0008   74.7988 C   0  0  0  0  0  0
   67.0036   31.9369   73.9334 C   0  0  0  0  0  0
   66.1483   30.8437   73.7921 C   0  0  0  0  0  0
   64.9585   30.7763   74.4901 C   0  0  0  0  0  0
   64.6185   31.8046   75.3365 C   0  0  0  0  0  0
   65.4689   32.9057   75.4884 C   0  0  0  0  0  0
   68.7115   34.0979   75.7976 C   0  0  0  0  0  0
   69.8359   33.1066   75.6237 C   0  0  0  0  0  0
   69.6561   31.7110   75.8772 C   0  0  0  0  0  0
   70.7316   30.8190   75.7583 C   0  0  0  0  0  0
   71.9959   31.3128   75.3849 C   0  0  0  0  0  0
   73.0300   30.4295   75.2956 O   0  0  0  0  0  0
   72.1847   32.6900   75.1289 C   0  0  0  0  0  0
   71.1066   33.5572   75.2535 C   0  0  0  0  0  0
   68.8988   35.0055   76.9337 C   0  0  0  0  0  0
   69.3216   36.3207   76.7561 C   0  0  0  0  0  0
   69.4778   37.1880   77.8003 C   0  0  0  0  0  0
   69.2067   36.7584   79.0894 C   0  0  0  0  0  0
   69.3015   37.5699   80.1835 O   0  0  0  0  0  0
   69.2586   38.9847   80.0244 C   0  0  0  0  0  0
   69.4561   39.5757   81.3941 C   0  0  0  0  0  0
   69.3939   41.0114   81.4181 N   0  0  0  0  0  0
   68.0943   41.4886   81.8929 C   0  0  0  0  0  0
   70.4284   41.5327   82.3189 C   0  0  0  0  0  0
   68.7807   35.4366   79.3069 C   0  0  0  0  0  0
   68.6326   34.5890   78.2450 C   0  0  0  0  0  0
   72.8799   29.5161   75.4414 H   0  0  0  0  0  0
  1  2  1  0  0  0
  2  3  1  0  0  0
  3  4  1  0  0  0
  3 10  1  0  0  0
  4  5  2  0  0  0
  4  9  1  0  0  0
  5  6  1  0  0  0
  6  7  2  0  0  0
  7  8  1  0  0  0
  8  9  2  0  0  0
 10 11  1  0  0  0
 10 18  1  0  0  0
 11 12  2  0  0  0
 11 17  1  0  0  0
 12 13  1  0  0  0
 13 14  2  0  0  0
 14 15  1  0  0  0
 14 16  1  0  0  0
 15 30  1  0  0  0
 16 17  2  0  0  0
 18 19  2  0  0  0
 18 29  1  0  0  0
 19 20  1  0  0  0
 20 21  2  0  0  0
 21 22  1  0  0  0
 21 28  1  0  0  0
 22 23  1  0  0  0
 23 24  1  0  0  0
 24 25  1  0  0  0
 25 26  1  0  0  0
 25 27  1  0  0  0
 28 29  2  0  0  0
M  END
>  <CHROM.0>
78.07294907,-179.86315556,132.48438746,-179.08013703

>  <CHROM.1>
-107.32710239,101.15052410,-121.39629270,-68.85894117,-78.18372943,2.85227834
20.54452107,-177.19987184,-177.99622174,100.71624593,68.84693147,34.91438546
76.95597536,1.66453527,0.21578049,-2.49617040

>  <FORMUL>
      OHT    C26 H29 N1 O2

>  <HET>
 OHT  A 600      29

>  <HETNAM>
     OHT 4-HYDROXYTAMOXIFEN

>  <Name>
OHT.pdb

>  <RI>
0

>  <Rbt.Current_Directory>
/home/malgorzata/Desktop/rDOCK_IFD/Wyniki/5c_estrogen_receptor/IFD

>  <Rbt.Executable>
rbdock ($Id: //depot/dev/client3/rdock/2013.1/src/exe/rbdock.cxx#4 $)

>  <Rbt.Library>
libRbt.so (2013.1, Build901 2013/11/27)

>  <Rbt.Parameter_File>
/home/malgorzata/Desktop/rDock_2013.1_src/data/scripts/hard_docking.prm

>  <Rbt.Receptor>
cavity.prm

>  <SCORE>
-4.89474

>  <SCORE.INTER>
-0.712364

>  <SCORE.INTER.CONST>
1

>  <SCORE.INTER.POLAR>
0

>  <SCORE.INTER.REPUL>
0

>  <SCORE.INTER.ROT>
9

>  <SCORE.INTER.VDW>
-15.1124

>  <SCORE.INTER.norm>
-0.0245643

>  <SCORE.INTRA>
-6.03736

>  <SCORE.INTRA.DIHEDRAL>
-5.41341

>  <SCORE.INTRA.DIHEDRAL.0>
14.7815

>  <SCORE.INTRA.POLAR>
0

>  <SCORE.INTRA.POLAR.0>
0

>  <SCORE.INTRA.REPUL>
0

>  <SCORE.INTRA.REPUL.0>
0

>  <SCORE.INTRA.VDW>
-3.33065

>  <SCORE.INTRA.VDW.0>
-0.0652974

>  <SCORE.INTRA.norm>
-0.208185

>  <SCORE.RESTR>
1.80336

>  <SCORE.RESTR.CAVITY>
1.80336

>  <SCORE.RESTR.norm>
0.0621849

>  <SCORE.SYSTEM>
0.051621

>  <SCORE.SYSTEM.CONST>
0

>  <SCORE.SYSTEM.DIHEDRAL>
0.82174

>  <SCORE.SYSTEM.VDW>
-0.359249

>  <SCORE.SYSTEM.norm>
0.00178003

>  <SCORE.heavy>
29

>  <SCORE.norm>
-0.168784

$$$$
