RAL.pdb
 OpenBabel12152014353D

 61 65  0  0  0  0  0  0  0  0999 V2000
   69.5710   36.2230   71.9170 C   0  0  0  0  0  0  0  0  0  0  0  0
   69.8160   37.4480   71.3520 C   0  0  0  0  0  0  0  0  0  0  0  0
   69.0830   37.9330   70.3050 C   0  0  0  0  0  0  0  0  0  0  0  0
   69.4100   39.1860   69.8500 O   0  0  0  0  0  0  0  0  0  0  0  0
   68.0290   37.1670   69.7940 C   0  0  0  0  0  0  0  0  0  0  0  0
   67.7650   35.9560   70.3850 C   0  0  0  0  0  0  0  0  0  0  0  0
   66.6380   34.8150   69.9860 S   0  0  0  0  0  0  0  0  0  0  0  0
   67.0010   33.6910   71.1920 C   0  0  0  0  0  0  0  0  0  0  0  0
   66.3470   32.3560   71.3010 C   0  0  0  0  0  0  0  0  0  0  0  0
   66.0870   31.7270   70.0990 C   0  0  0  0  0  0  0  0  0  0  0  0
   65.5600   30.4460   70.1280 C   0  0  0  0  0  0  0  0  0  0  0  0
   65.2590   29.8170   71.3200 C   0  0  0  0  0  0  0  0  0  0  0  0
   64.7350   28.5250   71.2490 O   0  0  0  0  0  0  0  0  0  0  0  0
   65.5620   30.4280   72.5190 C   0  0  0  0  0  0  0  0  0  0  0  0
   66.1060   31.7060   72.4800 C   0  0  0  0  0  0  0  0  0  0  0  0
   68.5560   35.4680   71.4640 C   0  0  0  0  0  0  0  0  0  0  0  0
   68.1280   34.1500   71.9060 C   0  0  0  0  0  0  0  0  0  0  0  0
   68.7710   33.4630   72.9180 C   0  0  0  0  0  0  0  0  0  0  0  0
   69.3680   32.4120   72.6530 O   0  0  0  0  0  0  0  0  0  0  0  0
   68.7680   33.9170   74.3130 C   0  0  0  0  0  0  0  0  0  0  0  0
   69.6210   33.3510   75.2390 C   0  0  0  0  0  0  0  0  0  0  0  0
   69.6330   33.7450   76.5630 C   0  0  0  0  0  0  0  0  0  0  0  0
   68.7330   34.7250   76.9780 C   0  0  0  0  0  0  0  0  0  0  0  0
   67.8790   35.3050   76.0570 C   0  0  0  0  0  0  0  0  0  0  0  0
   67.9070   34.9100   74.7300 C   0  0  0  0  0  0  0  0  0  0  0  0
   68.5550   35.2590   78.2200 O   0  0  0  0  0  0  0  0  0  0  0  0
   69.4610   34.8370   79.2280 C   0  0  0  0  0  0  0  0  0  0  0  0
   69.3110   35.6920   80.4580 C   0  0  0  0  0  0  0  0  0  0  0  0
   69.0230   37.1100   80.5570 N   0  0  0  0  0  0  0  0  0  0  0  0
   68.7200   37.4370   81.9650 C   0  0  0  0  0  0  0  0  0  0  0  0
   68.5440   38.9460   82.2290 C   0  0  0  0  0  0  0  0  0  0  0  0
   67.3380   39.4040   81.3930 C   0  0  0  0  0  0  0  0  0  0  0  0
   67.8040   39.1970   79.9190 C   0  0  0  0  0  0  0  0  0  0  0  0
   67.9600   37.6810   79.7070 C   0  0  0  0  0  0  0  0  0  0  0  0
   70.1650   35.8815   72.6887 H   0  0  0  0  0  0  0  0  0  0  0  0
   70.5825   38.0256   71.7314 H   0  0  0  0  0  0  0  0  0  0  0  0
   70.1280   39.6508   70.2326 H   0  0  0  0  0  0  0  0  0  0  0  0
   67.4667   37.5025   68.9964 H   0  0  0  0  0  0  0  0  0  0  0  0
   66.2804   32.1993   69.2020 H   0  0  0  0  0  0  0  0  0  0  0  0
   65.3886   29.9508   69.2390 H   0  0  0  0  0  0  0  0  0  0  0  0
   64.5416   28.1430   70.4155 H   0  0  0  0  0  0  0  0  0  0  0  0
   65.3899   29.9505   73.4176 H   0  0  0  0  0  0  0  0  0  0  0  0
   66.3352   32.1793   73.3680 H   0  0  0  0  0  0  0  0  0  0  0  0
   70.2705   32.6099   74.9324 H   0  0  0  0  0  0  0  0  0  0  0  0
   70.2954   33.3220   77.2318 H   0  0  0  0  0  0  0  0  0  0  0  0
   67.2172   36.0363   76.3607 H   0  0  0  0  0  0  0  0  0  0  0  0
   67.2785   35.3624   74.0478 H   0  0  0  0  0  0  0  0  0  0  0  0
   70.4622   34.9209   78.8600 H   0  0  0  0  0  0  0  0  0  0  0  0
   69.2478   33.8200   79.4834 H   0  0  0  0  0  0  0  0  0  0  0  0
   70.2379   35.5724   80.9790 H   0  0  0  0  0  0  0  0  0  0  0  0
   68.3605   35.3228   80.7823 H   0  0  0  0  0  0  0  0  0  0  0  0
   69.5231   37.0792   82.5749 H   0  0  0  0  0  0  0  0  0  0  0  0
   67.7872   36.9684   82.2002 H   0  0  0  0  0  0  0  0  0  0  0  0
   69.4231   39.4775   81.9298 H   0  0  0  0  0  0  0  0  0  0  0  0
   68.3858   39.1384   83.2696 H   0  0  0  0  0  0  0  0  0  0  0  0
   67.1135   40.4333   81.5804 H   0  0  0  0  0  0  0  0  0  0  0  0
   66.4454   38.8611   81.6240 H   0  0  0  0  0  0  0  0  0  0  0  0
   68.7401   39.6893   79.7567 H   0  0  0  0  0  0  0  0  0  0  0  0
   67.0941   39.6083   79.2321 H   0  0  0  0  0  0  0  0  0  0  0  0
   67.0332   37.2019   79.9444 H   0  0  0  0  0  0  0  0  0  0  0  0
   68.2302   37.5164   78.6848 H   0  0  0  0  0  0  0  0  0  0  0  0
  1  2  2  0  0  0  0
  1 16  1  0  0  0  0
  1 35  1  0  0  0  0
  2  3  1  0  0  0  0
  2 36  1  0  0  0  0
  3  4  1  0  0  0  0
  3  5  2  0  0  0  0
  4 37  1  0  0  0  0
  5  6  1  0  0  0  0
  5 38  1  0  0  0  0
  6  7  1  0  0  0  0
  6 16  2  0  0  0  0
  7  8  1  0  0  0  0
  8  9  1  0  0  0  0
  8 17  2  0  0  0  0
  9 10  2  0  0  0  0
  9 15  1  0  0  0  0
 10 11  1  0  0  0  0
 10 39  1  0  0  0  0
 11 12  2  0  0  0  0
 11 40  1  0  0  0  0
 12 13  1  0  0  0  0
 12 14  1  0  0  0  0
 13 41  1  0  0  0  0
 14 15  2  0  0  0  0
 14 42  1  0  0  0  0
 15 43  1  0  0  0  0
 16 17  1  0  0  0  0
 17 18  1  0  0  0  0
 18 19  2  0  0  0  0
 18 20  1  0  0  0  0
 20 21  2  0  0  0  0
 20 25  1  0  0  0  0
 21 22  1  0  0  0  0
 21 44  1  0  0  0  0
 22 23  2  0  0  0  0
 22 45  1  0  0  0  0
 23 24  1  0  0  0  0
 23 26  1  0  0  0  0
 24 25  2  0  0  0  0
 24 46  1  0  0  0  0
 25 47  1  0  0  0  0
 26 27  1  0  0  0  0
 27 28  1  0  0  0  0
 27 48  1  0  0  0  0
 27 49  1  0  0  0  0
 28 29  1  0  0  0  0
 28 50  1  0  0  0  0
 28 51  1  0  0  0  0
 29 30  1  0  0  0  0
 29 34  1  0  0  0  0
 30 31  1  0  0  0  0
 30 52  1  0  0  0  0
 30 53  1  0  0  0  0
 31 32  1  0  0  0  0
 31 54  1  0  0  0  0
 31 55  1  0  0  0  0
 32 33  1  0  0  0  0
 32 56  1  0  0  0  0
 32 57  1  0  0  0  0
 33 34  1  0  0  0  0
 33 58  1  0  0  0  0
 33 59  1  0  0  0  0
 34 60  1  0  0  0  0
 34 61  1  0  0  0  0
M  END
>  <HET>
 RAL  A 600      34

>  <HETNAM>
     RAL RALOXIFENE

>  <FORMUL>
      RAL    C28 H27 N1 O4 S1

$$$$
