U05.pdb
  rDOCK(R)          3D
libRbt.so/2013.1/901 2013/11/27
 22 24  0  0  0  0  0  0  0  0999 V2000
   -6.8853  -32.2992   23.8395 N   0  0  0  0  0  0
   -7.9435  -33.1770   23.9362 C   0  0  0  0  0  0
   -8.5509  -33.7377   22.7963 C   0  0  0  0  0  0
   -8.0357  -33.3857   21.4931 C   0  0  0  0  0  0
   -6.9520  -32.5088   21.4111 C   0  0  0  0  0  0
   -6.3831  -32.1552   20.0387 C   0  0  0  0  0  0
   -7.1795  -32.1169   19.1018 O   0  0  0  0  0  0
   -5.0561  -31.9412   19.8276 N   0  0  0  0  0  0
   -4.6317  -31.4947   18.4694 C   0  0  0  0  0  0
   -3.9465  -32.0108   20.7931 C   0  0  0  0  0  0
   -2.6765  -32.4762   20.4020 C   0  0  0  0  0  0
   -1.6255  -32.6051   21.3593 C   0  0  0  0  0  0
   -1.8405  -32.2690   22.7031 C   0  0  0  0  0  0
   -0.7328  -32.4339   23.7581 N   0  0  0  0  0  0
    0.3214  -32.9924   23.4504 O   0  0  0  0  0  0
   -0.9682  -32.0242   24.8657 O   0  0  0  0  0  0
   -3.0984  -31.7867   23.0698 C   0  0  0  0  0  0
   -4.1317  -31.6492   22.1172 C   0  0  0  0  0  0
   -5.3533  -31.0560   22.4283 N   0  0  0  0  0  0
   -5.3155  -29.7330   23.2397 C   0  0  0  0  0  0
   -6.5970  -29.0161   23.3273 C   0  0  0  0  0  0
   -6.4102  -31.9760   22.5990 C   0  0  0  0  0  0
  1  2  2  0  0  0
  1 22  1  0  0  0
  2  3  1  0  0  0
  3  4  2  0  0  0
  4  5  1  0  0  0
  5  6  1  0  0  0
  5 22  2  0  0  0
  6  7  2  0  0  0
  6  8  1  0  0  0
  8  9  1  0  0  0
  8 10  1  0  0  0
 10 11  2  0  0  0
 10 18  1  0  0  0
 11 12  1  0  0  0
 12 13  2  0  0  0
 13 14  1  0  0  0
 13 17  1  0  0  0
 14 15  2  0  0  0
 14 16  2  0  0  0
 17 18  2  0  0  0
 18 19  1  0  0  0
 19 20  1  0  0  0
 19 22  1  0  0  0
 20 21  1  0  0  0
M  END
>  <CHROM.0>
128.51561257,-25.49952447,-177.34819049,-173.54466923,-179.74567857,3.52866289
-148.46078282,55.34279764

>  <CHROM.1>
-7.19726743,169.05145432,-4.67010005,-32.01415260,22.06231424,2.88969974
0.02950349,-1.63179342

>  <FORMUL>
      U05    C15 H14 N4 O3

>  <HET>
 U05  A 999      22

>  <HETNAM>
     U05 6,11-DIHYDRO-11-ETHYL-6-METHYL-9-NITRO-5H-PYRIDO[2,3-B]
   2 U05 [1,5]BENZODIAZEPIN-5-ONE

>  <HETSYN>
     U05 1051U91

>  <Name>
U05.pdb

>  <RI>
4.37618e+07

>  <Rbt.Current_Directory>
/home/malgorzata/Desktop/rDOCK_IFD/Wyniki/10_hiv_rt/IFD

>  <Rbt.Executable>
rbdock ($Id: //depot/dev/client3/rdock/2013.1/src/exe/rbdock.cxx#4 $)

>  <Rbt.Library>
libRbt.so (2013.1, Build901 2013/11/27)

>  <Rbt.Parameter_File>
/home/malgorzata/Desktop/rDock_2013.1_src/data/scripts/dock.prm

>  <Rbt.Receptor>
cavity.prm

>  <SCORE>
41.6687

>  <SCORE.INTER>
0.390621

>  <SCORE.INTER.CONST>
1

>  <SCORE.INTER.POLAR>
0

>  <SCORE.INTER.REPUL>
0

>  <SCORE.INTER.ROT>
2

>  <SCORE.INTER.VDW>
-7.00938

>  <SCORE.INTER.norm>
0.0177555

>  <SCORE.INTRA>
-1.25498

>  <SCORE.INTRA.DIHEDRAL>
-0.879203

>  <SCORE.INTRA.DIHEDRAL.0>
1.34757

>  <SCORE.INTRA.POLAR>
0

>  <SCORE.INTRA.POLAR.0>
0

>  <SCORE.INTRA.REPUL>
0

>  <SCORE.INTRA.REPUL.0>
0

>  <SCORE.INTRA.VDW>
-0.815379

>  <SCORE.INTRA.VDW.0>
0.605696

>  <SCORE.INTRA.norm>
-0.0570446

>  <SCORE.RESTR>
0

>  <SCORE.RESTR.CAVITY>
0

>  <SCORE.RESTR.norm>
0

>  <SCORE.SYSTEM>
42.5331

>  <SCORE.SYSTEM.CONST>
0

>  <SCORE.SYSTEM.DIHEDRAL>
1.19486

>  <SCORE.SYSTEM.POLAR>
-0.479638

>  <SCORE.SYSTEM.VDW>
43.5664

>  <SCORE.SYSTEM.norm>
1.93332

>  <SCORE.heavy>
22

>  <SCORE.norm>
1.89403

$$$$
U05.pdb
  rDOCK(R)          3D
libRbt.so/2013.1/901 2013/11/27
 22 24  0  0  0  0  0  0  0  0999 V2000
   -1.7289  -31.8595   21.5886 N   0  0  0  0  0  0
   -2.1849  -31.3735   20.3821 C   0  0  0  0  0  0
   -3.3932  -30.6581   20.2777 C   0  0  0  0  0  0
   -4.1642  -30.4222   21.4767 C   0  0  0  0  0  0
   -3.6813  -30.9054   22.6946 C   0  0  0  0  0  0
   -4.4757  -30.6343   23.9704 C   0  0  0  0  0  0
   -5.6997  -30.5789   23.8598 O   0  0  0  0  0  0
   -3.8789  -30.4089   25.1722 N   0  0  0  0  0  0
   -4.7580  -30.2652   26.3683 C   0  0  0  0  0  0
   -2.4427  -30.3620   25.4935 C   0  0  0  0  0  0
   -1.9495  -29.4763   26.4706 C   0  0  0  0  0  0
   -0.5480  -29.3883   26.7276 C   0  0  0  0  0  0
    0.3588  -30.1832   26.0128 C   0  0  0  0  0  0
    1.8756  -30.0790   26.2485 N   0  0  0  0  0  0
    2.3078  -29.2800   27.0809 O   0  0  0  0  0  0
    2.5829  -30.7800   25.5717 O   0  0  0  0  0  0
   -0.1486  -31.0732   25.0643 C   0  0  0  0  0  0
   -1.5367  -31.1657   24.8217 C   0  0  0  0  0  0
   -2.0789  -32.1291   23.9737 N   0  0  0  0  0  0
   -1.5537  -33.5826   24.1203 C   0  0  0  0  0  0
   -0.2759  -33.8572   23.4453 C   0  0  0  0  0  0
   -2.4706  -31.6281   22.7134 C   0  0  0  0  0  0
  1  2  2  0  0  0
  1 22  1  0  0  0
  2  3  1  0  0  0
  3  4  2  0  0  0
  4  5  1  0  0  0
  5  6  1  0  0  0
  5 22  2  0  0  0
  6  7  2  0  0  0
  6  8  1  0  0  0
  8  9  1  0  0  0
  8 10  1  0  0  0
 10 11  2  0  0  0
 10 18  1  0  0  0
 11 12  1  0  0  0
 12 13  2  0  0  0
 13 14  1  0  0  0
 13 17  1  0  0  0
 14 15  2  0  0  0
 14 16  2  0  0  0
 17 18  2  0  0  0
 18 19  1  0  0  0
 19 20  1  0  0  0
 19 22  1  0  0  0
 20 21  1  0  0  0
M  END
>  <CHROM.0>
131.93124751,-20.53019735,-57.95172931,179.73515795,-3.25815081,-175.31047265
-150.12500571,55.23124046

>  <CHROM.1>
-0.10433912,-81.09265475,-1.75738952,-30.92150548,24.29679746,-2.50845557
-0.16870783,1.12626717

>  <FORMUL>
      U05    C15 H14 N4 O3

>  <HET>
 U05  A 999      22

>  <HETNAM>
     U05 6,11-DIHYDRO-11-ETHYL-6-METHYL-9-NITRO-5H-PYRIDO[2,3-B]
   2 U05 [1,5]BENZODIAZEPIN-5-ONE

>  <HETSYN>
     U05 1051U91

>  <Name>
U05.pdb

>  <RI>
4.37618e+07

>  <Rbt.Current_Directory>
/home/malgorzata/Desktop/rDOCK_IFD/Wyniki/10_hiv_rt/IFD

>  <Rbt.Executable>
rbdock ($Id: //depot/dev/client3/rdock/2013.1/src/exe/rbdock.cxx#4 $)

>  <Rbt.Library>
libRbt.so (2013.1, Build901 2013/11/27)

>  <Rbt.Parameter_File>
/home/malgorzata/Desktop/rDock_2013.1_src/data/scripts/dock.prm

>  <Rbt.Receptor>
cavity.prm

>  <SCORE>
39.6102

>  <SCORE.INTER>
-1.32275

>  <SCORE.INTER.CONST>
1

>  <SCORE.INTER.POLAR>
0

>  <SCORE.INTER.REPUL>
0

>  <SCORE.INTER.ROT>
2

>  <SCORE.INTER.VDW>
-8.72275

>  <SCORE.INTER.norm>
-0.0601252

>  <SCORE.INTRA>
-1.08318

>  <SCORE.INTRA.DIHEDRAL>
-0.986998

>  <SCORE.INTRA.DIHEDRAL.0>
1.34757

>  <SCORE.INTRA.POLAR>
0

>  <SCORE.INTRA.POLAR.0>
0

>  <SCORE.INTRA.REPUL>
0

>  <SCORE.INTRA.REPUL.0>
0

>  <SCORE.INTRA.VDW>
-0.589679

>  <SCORE.INTRA.VDW.0>
0.605696

>  <SCORE.INTRA.norm>
-0.0492353

>  <SCORE.RESTR>
0

>  <SCORE.RESTR.CAVITY>
0

>  <SCORE.RESTR.norm>
0

>  <SCORE.SYSTEM>
42.0162

>  <SCORE.SYSTEM.CONST>
0

>  <SCORE.SYSTEM.DIHEDRAL>
1.2095

>  <SCORE.SYSTEM.POLAR>
-0.480352

>  <SCORE.SYSTEM.VDW>
43.0446

>  <SCORE.SYSTEM.norm>
1.90983

>  <SCORE.heavy>
22

>  <SCORE.norm>
1.80046

$$$$
U05.pdb
  rDOCK(R)          3D
libRbt.so/2013.1/901 2013/11/27
 22 24  0  0  0  0  0  0  0  0999 V2000
   -1.6486  -32.3537   21.6645 N   0  0  0  0  0  0
   -1.9685  -31.7874   20.4494 C   0  0  0  0  0  0
   -2.8842  -30.7230   20.3434 C   0  0  0  0  0  0
   -3.4918  -30.2094   21.5494 C   0  0  0  0  0  0
   -3.1452  -30.7814   22.7752 C   0  0  0  0  0  0
   -3.7608  -30.2244   24.0570 C   0  0  0  0  0  0
   -4.9046  -29.7791   23.9743 O   0  0  0  0  0  0
   -3.0783  -30.1640   25.2324 N   0  0  0  0  0  0
   -3.8181  -29.7027   26.4425 C   0  0  0  0  0  0
   -1.6928  -30.5742   25.5157 C   0  0  0  0  0  0
   -0.9035  -29.8636   26.4401 C   0  0  0  0  0  0
    0.4600  -30.2259   26.6582 C   0  0  0  0  0  0
    1.0339  -31.2955   25.9572 C   0  0  0  0  0  0
    2.5109  -31.6806   26.1504 N   0  0  0  0  0  0
    3.0021  -32.5729   25.4571 O   0  0  0  0  0  0
    3.1198  -31.0964   27.0093 O   0  0  0  0  0  0
    0.2309  -32.0046   25.0618 C   0  0  0  0  0  0
   -1.1208  -31.6505   24.8580 C   0  0  0  0  0  0
   -1.9766  -32.4143   24.0672 N   0  0  0  0  0  0
   -1.9437  -33.9537   24.2651 C   0  0  0  0  0  0
   -0.8508  -34.6506   23.5693 C   0  0  0  0  0  0
   -2.2328  -31.8564   22.7961 C   0  0  0  0  0  0
  1  2  2  0  0  0
  1 22  1  0  0  0
  2  3  1  0  0  0
  3  4  2  0  0  0
  4  5  1  0  0  0
  5  6  1  0  0  0
  5 22  2  0  0  0
  6  7  2  0  0  0
  6  8  1  0  0  0
  8  9  1  0  0  0
  8 10  1  0  0  0
 10 11  2  0  0  0
 10 18  1  0  0  0
 11 12  1  0  0  0
 12 13  2  0  0  0
 13 14  1  0  0  0
 13 17  1  0  0  0
 14 15  2  0  0  0
 14 16  2  0  0  0
 17 18  2  0  0  0
 18 19  1  0  0  0
 19 20  1  0  0  0
 19 22  1  0  0  0
 20 21  1  0  0  0
M  END
>  <CHROM.0>
130.29997483,-21.35097852,-56.62239194,-177.48688701,-177.09616860,7.45478885
-109.76013317,-64.89386844

>  <CHROM.1>
-175.54329811,-81.20295438,-1.27138688,-31.36786062,24.33061699,-2.69906660
-0.44618455,1.03128112

>  <FORMUL>
      U05    C15 H14 N4 O3

>  <HET>
 U05  A 999      22

>  <HETNAM>
     U05 6,11-DIHYDRO-11-ETHYL-6-METHYL-9-NITRO-5H-PYRIDO[2,3-B]
   2 U05 [1,5]BENZODIAZEPIN-5-ONE

>  <HETSYN>
     U05 1051U91

>  <Name>
U05.pdb

>  <RI>
4.37618e+07

>  <Rbt.Current_Directory>
/home/malgorzata/Desktop/rDOCK_IFD/Wyniki/10_hiv_rt/IFD

>  <Rbt.Executable>
rbdock ($Id: //depot/dev/client3/rdock/2013.1/src/exe/rbdock.cxx#4 $)

>  <Rbt.Library>
libRbt.so (2013.1, Build901 2013/11/27)

>  <Rbt.Parameter_File>
/home/malgorzata/Desktop/rDock_2013.1_src/data/scripts/dock.prm

>  <Rbt.Receptor>
cavity.prm

>  <SCORE>
40.0869

>  <SCORE.INTER>
-1.37226

>  <SCORE.INTER.CONST>
1

>  <SCORE.INTER.POLAR>
0

>  <SCORE.INTER.REPUL>
0

>  <SCORE.INTER.ROT>
2

>  <SCORE.INTER.VDW>
-8.77226

>  <SCORE.INTER.norm>
-0.0623757

>  <SCORE.INTRA>
-1.07579

>  <SCORE.INTRA.DIHEDRAL>
-0.889662

>  <SCORE.INTRA.DIHEDRAL.0>
1.34757

>  <SCORE.INTRA.POLAR>
0

>  <SCORE.INTRA.POLAR.0>
0

>  <SCORE.INTRA.REPUL>
0

>  <SCORE.INTRA.REPUL.0>
0

>  <SCORE.INTRA.VDW>
-0.630959

>  <SCORE.INTRA.VDW.0>
0.605696

>  <SCORE.INTRA.norm>
-0.0488996

>  <SCORE.RESTR>
0

>  <SCORE.RESTR.CAVITY>
0

>  <SCORE.RESTR.norm>
0

>  <SCORE.SYSTEM>
42.5349

>  <SCORE.SYSTEM.CONST>
0

>  <SCORE.SYSTEM.DIHEDRAL>
1.27332

>  <SCORE.SYSTEM.POLAR>
-0.480835

>  <SCORE.SYSTEM.VDW>
43.5331

>  <SCORE.SYSTEM.norm>
1.93341

>  <SCORE.heavy>
22

>  <SCORE.norm>
1.82213

$$$$
U05.pdb
  rDOCK(R)          3D
libRbt.so/2013.1/901 2013/11/27
 22 24  0  0  0  0  0  0  0  0999 V2000
   -1.0053  -29.6108   25.8306 N   0  0  0  0  0  0
    0.0115  -28.8135   26.3105 C   0  0  0  0  0  0
    1.3474  -29.2566   26.3513 C   0  0  0  0  0  0
    1.6527  -30.5819   25.8636 C   0  0  0  0  0  0
    0.6152  -31.3720   25.3643 C   0  0  0  0  0  0
    0.9346  -32.7626   24.8197 C   0  0  0  0  0  0
    1.8632  -33.3671   25.3543 O   0  0  0  0  0  0
    0.2739  -33.3055   23.7615 N   0  0  0  0  0  0
    0.5971  -34.7129   23.3885 C   0  0  0  0  0  0
   -0.8058  -32.7192   22.9500 C   0  0  0  0  0  0
   -0.9013  -32.9885   21.5713 C   0  0  0  0  0  0
   -1.9099  -32.3621   20.7787 C   0  0  0  0  0  0
   -2.8220  -31.4707   21.3605 C   0  0  0  0  0  0
   -3.8942  -30.7574   20.5187 N   0  0  0  0  0  0
   -3.8627  -30.8486   19.2904 O   0  0  0  0  0  0
   -4.7136  -30.1072   21.1151 O   0  0  0  0  0  0
   -2.7285  -31.2329   22.7331 C   0  0  0  0  0  0
   -1.7369  -31.8640   23.5157 C   0  0  0  0  0  0
   -1.6981  -31.7424   24.9030 N   0  0  0  0  0  0
   -3.0391  -31.9015   25.6689 C   0  0  0  0  0  0
   -2.9101  -32.2864   27.0828 C   0  0  0  0  0  0
   -0.6996  -30.8624   25.3735 C   0  0  0  0  0  0
  1  2  2  0  0  0
  1 22  1  0  0  0
  2  3  1  0  0  0
  3  4  2  0  0  0
  4  5  1  0  0  0
  5  6  1  0  0  0
  5 22  2  0  0  0
  6  7  2  0  0  0
  6  8  1  0  0  0
  8  9  1  0  0  0
  8 10  1  0  0  0
 10 11  2  0  0  0
 10 18  1  0  0  0
 11 12  1  0  0  0
 12 13  2  0  0  0
 13 14  1  0  0  0
 13 17  1  0  0  0
 14 15  2  0  0  0
 14 16  2  0  0  0
 17 18  2  0  0  0
 18 19  1  0  0  0
 19 20  1  0  0  0
 19 22  1  0  0  0
 20 21  1  0  0  0
M  END
>  <CHROM.0>
-87.39274726,-20.41066367,-178.03719660,-5.59021054,-178.37645528,-174.02654852
103.96950741,172.95768160

>  <CHROM.1>
-8.30265578,157.24508728,-1.20857709,-31.60181618,23.78012506,0.66748256
-0.66312935,0.94020172

>  <FORMUL>
      U05    C15 H14 N4 O3

>  <HET>
 U05  A 999      22

>  <HETNAM>
     U05 6,11-DIHYDRO-11-ETHYL-6-METHYL-9-NITRO-5H-PYRIDO[2,3-B]
   2 U05 [1,5]BENZODIAZEPIN-5-ONE

>  <HETSYN>
     U05 1051U91

>  <Name>
U05.pdb

>  <RI>
4.37618e+07

>  <Rbt.Current_Directory>
/home/malgorzata/Desktop/rDOCK_IFD/Wyniki/10_hiv_rt/IFD

>  <Rbt.Executable>
rbdock ($Id: //depot/dev/client3/rdock/2013.1/src/exe/rbdock.cxx#4 $)

>  <Rbt.Library>
libRbt.so (2013.1, Build901 2013/11/27)

>  <Rbt.Parameter_File>
/home/malgorzata/Desktop/rDock_2013.1_src/data/scripts/dock.prm

>  <Rbt.Receptor>
cavity.prm

>  <SCORE>
38.7648

>  <SCORE.INTER>
-1.78557

>  <SCORE.INTER.CONST>
1

>  <SCORE.INTER.POLAR>
0

>  <SCORE.INTER.REPUL>
0

>  <SCORE.INTER.ROT>
2

>  <SCORE.INTER.VDW>
-9.18557

>  <SCORE.INTER.norm>
-0.0811621

>  <SCORE.INTRA>
-1.3872

>  <SCORE.INTRA.DIHEDRAL>
-0.718124

>  <SCORE.INTRA.DIHEDRAL.0>
1.34757

>  <SCORE.INTRA.POLAR>
0

>  <SCORE.INTRA.POLAR.0>
0

>  <SCORE.INTRA.REPUL>
0

>  <SCORE.INTRA.REPUL.0>
0

>  <SCORE.INTRA.VDW>
-1.02814

>  <SCORE.INTRA.VDW.0>
0.605696

>  <SCORE.INTRA.norm>
-0.0630547

>  <SCORE.RESTR>
0

>  <SCORE.RESTR.CAVITY>
0

>  <SCORE.RESTR.norm>
0

>  <SCORE.SYSTEM>
41.9375

>  <SCORE.SYSTEM.CONST>
0

>  <SCORE.SYSTEM.DIHEDRAL>
1.32795

>  <SCORE.SYSTEM.POLAR>
-0.58351

>  <SCORE.SYSTEM.VDW>
43.2575

>  <SCORE.SYSTEM.norm>
1.90625

>  <SCORE.heavy>
22

>  <SCORE.norm>
1.76204

$$$$
U05.pdb
  rDOCK(R)          3D
libRbt.so/2013.1/901 2013/11/27
 22 24  0  0  0  0  0  0  0  0999 V2000
    0.0969  -33.5268   22.2668 N   0  0  0  0  0  0
    0.1169  -33.4780   20.8896 C   0  0  0  0  0  0
   -0.8182  -32.7200   20.1589 C   0  0  0  0  0  0
   -1.8158  -31.9664   20.8829 C   0  0  0  0  0  0
   -1.8133  -32.0113   22.2785 C   0  0  0  0  0  0
   -2.8461  -31.1940   23.0514 C   0  0  0  0  0  0
   -3.9450  -31.0440   22.5191 O   0  0  0  0  0  0
   -2.5707  -30.6058   24.2470 N   0  0  0  0  0  0
   -3.6897  -29.9258   24.9609 C   0  0  0  0  0  0
   -1.3087  -30.6073   25.0057 C   0  0  0  0  0  0
   -0.9165  -29.4835   25.7578 C   0  0  0  0  0  0
    0.3402  -29.4672   26.4347 C   0  0  0  0  0  0
    1.2027  -30.5700   26.3628 C   0  0  0  0  0  0
    2.5767  -30.5600   27.0550 N   0  0  0  0  0  0
    2.9415  -29.5549   27.6672 O   0  0  0  0  0  0
    3.2547  -31.5480   26.9374 O   0  0  0  0  0  0
    0.7884  -31.6854   25.6324 C   0  0  0  0  0  0
   -0.4609  -31.7021   24.9743 C   0  0  0  0  0  0
   -0.9523  -32.8435   24.3444 N   0  0  0  0  0  0
   -0.8354  -34.1868   25.1138 C   0  0  0  0  0  0
   -1.8211  -35.2115   24.7366 C   0  0  0  0  0  0
   -0.8540  -32.8084   22.9366 C   0  0  0  0  0  0
  1  2  2  0  0  0
  1 22  1  0  0  0
  2  3  1  0  0  0
  3  4  2  0  0  0
  4  5  1  0  0  0
  5  6  1  0  0  0
  5 22  2  0  0  0
  6  7  2  0  0  0
  6  8  1  0  0  0
  8  9  1  0  0  0
  8 10  1  0  0  0
 10 11  2  0  0  0
 10 18  1  0  0  0
 11 12  1  0  0  0
 12 13  2  0  0  0
 13 14  1  0  0  0
 13 17  1  0  0  0
 14 15  2  0  0  0
 14 16  2  0  0  0
 17 18  2  0  0  0
 18 19  1  0  0  0
 19 20  1  0  0  0
 19 22  1  0  0  0
 20 21  1  0  0  0
M  END
>  <CHROM.0>
134.05846264,-20.50948827,65.41712035,-2.40266147,-175.40227485,8.50626795
-91.94089403,172.87536999

>  <CHROM.1>
-1.30266553,154.83546910,-0.58159104,-31.66696490,24.34190563,-2.30984691
-0.45826616,0.79315601

>  <FORMUL>
      U05    C15 H14 N4 O3

>  <HET>
 U05  A 999      22

>  <HETNAM>
     U05 6,11-DIHYDRO-11-ETHYL-6-METHYL-9-NITRO-5H-PYRIDO[2,3-B]
   2 U05 [1,5]BENZODIAZEPIN-5-ONE

>  <HETSYN>
     U05 1051U91

>  <Name>
U05.pdb

>  <RI>
4.37618e+07

>  <Rbt.Current_Directory>
/home/malgorzata/Desktop/rDOCK_IFD/Wyniki/10_hiv_rt/IFD

>  <Rbt.Executable>
rbdock ($Id: //depot/dev/client3/rdock/2013.1/src/exe/rbdock.cxx#4 $)

>  <Rbt.Library>
libRbt.so (2013.1, Build901 2013/11/27)

>  <Rbt.Parameter_File>
/home/malgorzata/Desktop/rDock_2013.1_src/data/scripts/dock.prm

>  <Rbt.Receptor>
cavity.prm

>  <SCORE>
39.6816

>  <SCORE.INTER>
-0.832048

>  <SCORE.INTER.CONST>
1

>  <SCORE.INTER.POLAR>
0

>  <SCORE.INTER.REPUL>
0

>  <SCORE.INTER.ROT>
2

>  <SCORE.INTER.VDW>
-8.23205

>  <SCORE.INTER.norm>
-0.0378204

>  <SCORE.INTRA>
-1.48955

>  <SCORE.INTRA.DIHEDRAL>
-0.890423

>  <SCORE.INTRA.DIHEDRAL.0>
1.34757

>  <SCORE.INTRA.POLAR>
0

>  <SCORE.INTRA.POLAR.0>
0

>  <SCORE.INTRA.REPUL>
0

>  <SCORE.INTRA.REPUL.0>
0

>  <SCORE.INTRA.VDW>
-1.04434

>  <SCORE.INTRA.VDW.0>
0.605696

>  <SCORE.INTRA.norm>
-0.0677068

>  <SCORE.RESTR>
0

>  <SCORE.RESTR.CAVITY>
0

>  <SCORE.RESTR.norm>
0

>  <SCORE.SYSTEM>
42.0032

>  <SCORE.SYSTEM.CONST>
0

>  <SCORE.SYSTEM.DIHEDRAL>
1.43284

>  <SCORE.SYSTEM.POLAR>
-0.584192

>  <SCORE.SYSTEM.VDW>
43.2731

>  <SCORE.SYSTEM.norm>
1.90924

>  <SCORE.heavy>
22

>  <SCORE.norm>
1.80371

$$$$
U05.pdb
  rDOCK(R)          3D
libRbt.so/2013.1/901 2013/11/27
 22 24  0  0  0  0  0  0  0  0999 V2000
   -7.5947  -31.3202   23.2846 N   0  0  0  0  0  0
   -8.6003  -32.0989   22.7534 C   0  0  0  0  0  0
   -8.5471  -32.5817   21.4317 C   0  0  0  0  0  0
   -7.3965  -32.2557   20.6210 C   0  0  0  0  0  0
   -6.3773  -31.4804   21.1780 C   0  0  0  0  0  0
   -5.1443  -31.1566   20.3370 C   0  0  0  0  0  0
   -5.3177  -31.0292   19.1258 O   0  0  0  0  0  0
   -3.8965  -31.0615   20.8710 N   0  0  0  0  0  0
   -2.7869  -30.6320   19.9717 C   0  0  0  0  0  0
   -3.4759  -31.2492   22.2695 C   0  0  0  0  0  0
   -2.2272  -31.8221   22.5778 C   0  0  0  0  0  0
   -1.8558  -32.0634   23.9349 C   0  0  0  0  0  0
   -2.7273  -31.7325   24.9818 C   0  0  0  0  0  0
   -2.3623  -32.0165   26.4492 N   0  0  0  0  0  0
   -3.1433  -31.6889   27.3441 O   0  0  0  0  0  0
   -1.2938  -32.5314   26.6564 O   0  0  0  0  0  0
   -3.9516  -31.1435   24.6602 C   0  0  0  0  0  0
   -4.3100  -30.8953   23.3170 C   0  0  0  0  0  0
   -5.4666  -30.1981   22.9746 N   0  0  0  0  0  0
   -5.7745  -28.8985   23.7659 C   0  0  0  0  0  0
   -6.4416  -29.0982   25.0617 C   0  0  0  0  0  0
   -6.5131  -31.0203   22.5041 C   0  0  0  0  0  0
  1  2  2  0  0  0
  1 22  1  0  0  0
  2  3  1  0  0  0
  3  4  2  0  0  0
  4  5  1  0  0  0
  5  6  1  0  0  0
  5 22  2  0  0  0
  6  7  2  0  0  0
  6  8  1  0  0  0
  8  9  1  0  0  0
  8 10  1  0  0  0
 10 11  2  0  0  0
 10 18  1  0  0  0
 11 12  1  0  0  0
 12 13  2  0  0  0
 13 14  1  0  0  0
 13 17  1  0  0  0
 14 15  2  0  0  0
 14 16  2  0  0  0
 17 18  2  0  0  0
 18 19  1  0  0  0
 19 20  1  0  0  0
 19 22  1  0  0  0
 20 21  1  0  0  0
M  END
>  <CHROM.0>
-94.59135902,-25.74544198,-176.33363129,-170.74474535,-178.43516027,-174.37572409
-133.34464921,171.43778999

>  <CHROM.1>
178.66086109,-82.65542586,-4.73833525,-31.25755413,23.05717144,2.29342012
0.09160885,-1.57250618

>  <FORMUL>
      U05    C15 H14 N4 O3

>  <HET>
 U05  A 999      22

>  <HETNAM>
     U05 6,11-DIHYDRO-11-ETHYL-6-METHYL-9-NITRO-5H-PYRIDO[2,3-B]
   2 U05 [1,5]BENZODIAZEPIN-5-ONE

>  <HETSYN>
     U05 1051U91

>  <Name>
U05.pdb

>  <RI>
4.37618e+07

>  <Rbt.Current_Directory>
/home/malgorzata/Desktop/rDOCK_IFD/Wyniki/10_hiv_rt/IFD

>  <Rbt.Executable>
rbdock ($Id: //depot/dev/client3/rdock/2013.1/src/exe/rbdock.cxx#4 $)

>  <Rbt.Library>
libRbt.so (2013.1, Build901 2013/11/27)

>  <Rbt.Parameter_File>
/home/malgorzata/Desktop/rDock_2013.1_src/data/scripts/dock.prm

>  <Rbt.Receptor>
cavity.prm

>  <SCORE>
40.5462

>  <SCORE.INTER>
-0.611835

>  <SCORE.INTER.CONST>
1

>  <SCORE.INTER.POLAR>
0

>  <SCORE.INTER.REPUL>
0

>  <SCORE.INTER.ROT>
2

>  <SCORE.INTER.VDW>
-8.01184

>  <SCORE.INTER.norm>
-0.0278107

>  <SCORE.INTRA>
-1.11018

>  <SCORE.INTRA.DIHEDRAL>
-0.952902

>  <SCORE.INTRA.DIHEDRAL.0>
1.34757

>  <SCORE.INTRA.POLAR>
0

>  <SCORE.INTRA.POLAR.0>
0

>  <SCORE.INTRA.REPUL>
0

>  <SCORE.INTRA.REPUL.0>
0

>  <SCORE.INTRA.VDW>
-0.63373

>  <SCORE.INTRA.VDW.0>
0.605696

>  <SCORE.INTRA.norm>
-0.0504628

>  <SCORE.RESTR>
0.00137511

>  <SCORE.RESTR.CAVITY>
0.00137511

>  <SCORE.RESTR.norm>
6.25051e-05

>  <SCORE.SYSTEM>
42.2668

>  <SCORE.SYSTEM.CONST>
0

>  <SCORE.SYSTEM.DIHEDRAL>
1.42648

>  <SCORE.SYSTEM.POLAR>
-0.596213

>  <SCORE.SYSTEM.VDW>
43.5807

>  <SCORE.SYSTEM.norm>
1.92122

>  <SCORE.heavy>
22

>  <SCORE.norm>
1.84301

$$$$
U05.pdb
  rDOCK(R)          3D
libRbt.so/2013.1/901 2013/11/27
 22 24  0  0  0  0  0  0  0  0999 V2000
   -7.6717  -31.6178   22.7651 N   0  0  0  0  0  0
   -8.6074  -32.3900   22.1109 C   0  0  0  0  0  0
   -8.4398  -32.7832   20.7693 C   0  0  0  0  0  0
   -7.2446  -32.3701   20.0706 C   0  0  0  0  0  0
   -6.2972  -31.6026   20.7512 C   0  0  0  0  0  0
   -5.0176  -31.1870   20.0284 C   0  0  0  0  0  0
   -5.1054  -30.9858   18.8179 O   0  0  0  0  0  0
   -3.8168  -31.0895   20.6606 N   0  0  0  0  0  0
   -2.6595  -30.5686   19.8771 C   0  0  0  0  0  0
   -3.4942  -31.3557   22.0723 C   0  0  0  0  0  0
   -2.2523  -31.9095   22.4378 C   0  0  0  0  0  0
   -1.9740  -32.2281   23.8012 C   0  0  0  0  0  0
   -2.9315  -31.9931   24.7977 C   0  0  0  0  0  0
   -2.6661  -32.3615   26.2677 N   0  0  0  0  0  0
   -1.6041  -32.9049   26.5759 O   0  0  0  0  0  0
   -3.5420  -32.1203   27.0579 O   0  0  0  0  0  0
   -4.1486  -31.4215   24.4219 C   0  0  0  0  0  0
   -4.4153  -31.0967   23.0737 C   0  0  0  0  0  0
   -5.5672  -30.4139   22.6892 N   0  0  0  0  0  0
   -5.9781  -29.1789   23.5353 C   0  0  0  0  0  0
   -6.6614  -29.4870   24.8010 C   0  0  0  0  0  0
   -6.5467  -31.2348   22.0895 C   0  0  0  0  0  0
  1  2  2  0  0  0
  1 22  1  0  0  0
  2  3  1  0  0  0
  3  4  2  0  0  0
  4  5  1  0  0  0
  5  6  1  0  0  0
  5 22  2  0  0  0
  6  7  2  0  0  0
  6  8  1  0  0  0
  8  9  1  0  0  0
  8 10  1  0  0  0
 10 11  2  0  0  0
 10 18  1  0  0  0
 11 12  1  0  0  0
 12 13  2  0  0  0
 13 14  1  0  0  0
 13 17  1  0  0  0
 14 15  2  0  0  0
 14 16  2  0  0  0
 17 18  2  0  0  0
 18 19  1  0  0  0
 19 20  1  0  0  0
 19 22  1  0  0  0
 20 21  1  0  0  0
M  END
>  <CHROM.0>
-106.56796340,-25.74681781,-178.07801693,-175.08790770,-178.21731129,1.02204431
-166.22429117,172.84486147

>  <CHROM.1>
-1.80718186,-79.17992192,-4.80814785,-31.45689688,22.76126077,2.21692881
0.05542346,-1.50009197

>  <FORMUL>
      U05    C15 H14 N4 O3

>  <HET>
 U05  A 999      22

>  <HETNAM>
     U05 6,11-DIHYDRO-11-ETHYL-6-METHYL-9-NITRO-5H-PYRIDO[2,3-B]
   2 U05 [1,5]BENZODIAZEPIN-5-ONE

>  <HETSYN>
     U05 1051U91

>  <Name>
U05.pdb

>  <RI>
4.37618e+07

>  <Rbt.Current_Directory>
/home/malgorzata/Desktop/rDOCK_IFD/Wyniki/10_hiv_rt/IFD

>  <Rbt.Executable>
rbdock ($Id: //depot/dev/client3/rdock/2013.1/src/exe/rbdock.cxx#4 $)

>  <Rbt.Library>
libRbt.so (2013.1, Build901 2013/11/27)

>  <Rbt.Parameter_File>
/home/malgorzata/Desktop/rDock_2013.1_src/data/scripts/dock.prm

>  <Rbt.Receptor>
cavity.prm

>  <SCORE>
40.9876

>  <SCORE.INTER>
-0.460446

>  <SCORE.INTER.CONST>
1

>  <SCORE.INTER.POLAR>
0

>  <SCORE.INTER.REPUL>
0

>  <SCORE.INTER.ROT>
2

>  <SCORE.INTER.VDW>
-7.86045

>  <SCORE.INTER.norm>
-0.0209293

>  <SCORE.INTRA>
-1.0724

>  <SCORE.INTRA.DIHEDRAL>
-1.01262

>  <SCORE.INTRA.DIHEDRAL.0>
1.34757

>  <SCORE.INTRA.POLAR>
0

>  <SCORE.INTRA.POLAR.0>
0

>  <SCORE.INTRA.REPUL>
0

>  <SCORE.INTRA.REPUL.0>
0

>  <SCORE.INTRA.VDW>
-0.566087

>  <SCORE.INTRA.VDW.0>
0.605696

>  <SCORE.INTRA.norm>
-0.0487453

>  <SCORE.RESTR>
0.0027042

>  <SCORE.RESTR.CAVITY>
0.0027042

>  <SCORE.RESTR.norm>
0.000122918

>  <SCORE.SYSTEM>
42.5178

>  <SCORE.SYSTEM.CONST>
0

>  <SCORE.SYSTEM.DIHEDRAL>
1.22046

>  <SCORE.SYSTEM.POLAR>
-0.584445

>  <SCORE.SYSTEM.VDW>
43.8946

>  <SCORE.SYSTEM.norm>
1.93263

>  <SCORE.heavy>
22

>  <SCORE.norm>
1.86307

$$$$
U05.pdb
  rDOCK(R)          3D
libRbt.so/2013.1/901 2013/11/27
 22 24  0  0  0  0  0  0  0  0999 V2000
    0.0953  -33.5195   22.2819 N   0  0  0  0  0  0
    0.1232  -33.4757   20.9046 C   0  0  0  0  0  0
   -0.8084  -32.7212   20.1659 C   0  0  0  0  0  0
   -1.8109  -31.9658   20.8814 C   0  0  0  0  0  0
   -1.8162  -32.0058   22.2772 C   0  0  0  0  0  0
   -2.8543  -31.1866   23.0412 C   0  0  0  0  0  0
   -3.9502  -31.0395   22.5020 O   0  0  0  0  0  0
   -2.5862  -30.5939   24.2362 N   0  0  0  0  0  0
   -3.7098  -29.9123   24.9412 C   0  0  0  0  0  0
   -1.3286  -30.5915   25.0021 C   0  0  0  0  0  0
   -0.9417  -29.4646   25.7524 C   0  0  0  0  0  0
    0.3111  -29.4448   26.4365 C   0  0  0  0  0  0
    1.1749  -30.5470   26.3735 C   0  0  0  0  0  0
    2.5449  -30.5333   27.0735 N   0  0  0  0  0  0
    2.9002  -29.5300   27.6943 O   0  0  0  0  0  0
    3.2295  -31.5164   26.9533 O   0  0  0  0  0  0
    0.7658  -31.6655   25.6448 C   0  0  0  0  0  0
   -0.4797  -31.6856   24.9796 C   0  0  0  0  0  0
   -0.9664  -32.8297   24.3510 N   0  0  0  0  0  0
   -0.8528  -34.1701   25.1258 C   0  0  0  0  0  0
   -1.8470  -35.1906   24.7597 C   0  0  0  0  0  0
   -0.8601  -32.7996   22.9437 C   0  0  0  0  0  0
  1  2  2  0  0  0
  1 22  1  0  0  0
  2  3  1  0  0  0
  3  4  2  0  0  0
  4  5  1  0  0  0
  5  6  1  0  0  0
  5 22  2  0  0  0
  6  7  2  0  0  0
  6  8  1  0  0  0
  8  9  1  0  0  0
  8 10  1  0  0  0
 10 11  2  0  0  0
 10 18  1  0  0  0
 11 12  1  0  0  0
 12 13  2  0  0  0
 13 14  1  0  0  0
 13 17  1  0  0  0
 14 15  2  0  0  0
 14 16  2  0  0  0
 17 18  2  0  0  0
 18 19  1  0  0  0
 19 20  1  0  0  0
 19 22  1  0  0  0
 20 21  1  0  0  0
M  END
>  <CHROM.0>
132.28789842,-21.38080781,62.88992356,-172.43070728,-1.88154719,4.52077329
-143.27013819,-65.35330469

>  <CHROM.1>
-0.65088914,154.03429386,-0.59733083,-31.65252798,24.34701037,-2.30420444
-0.46036877,0.79330232

>  <FORMUL>
      U05    C15 H14 N4 O3

>  <HET>
 U05  A 999      22

>  <HETNAM>
     U05 6,11-DIHYDRO-11-ETHYL-6-METHYL-9-NITRO-5H-PYRIDO[2,3-B]
   2 U05 [1,5]BENZODIAZEPIN-5-ONE

>  <HETSYN>
     U05 1051U91

>  <Name>
U05.pdb

>  <RI>
4.37618e+07

>  <Rbt.Current_Directory>
/home/malgorzata/Desktop/rDOCK_IFD/Wyniki/10_hiv_rt/IFD

>  <Rbt.Executable>
rbdock ($Id: //depot/dev/client3/rdock/2013.1/src/exe/rbdock.cxx#4 $)

>  <Rbt.Library>
libRbt.so (2013.1, Build901 2013/11/27)

>  <Rbt.Parameter_File>
/home/malgorzata/Desktop/rDock_2013.1_src/data/scripts/dock.prm

>  <Rbt.Receptor>
cavity.prm

>  <SCORE>
39.906

>  <SCORE.INTER>
-0.869372

>  <SCORE.INTER.CONST>
1

>  <SCORE.INTER.POLAR>
0

>  <SCORE.INTER.REPUL>
0

>  <SCORE.INTER.ROT>
2

>  <SCORE.INTER.VDW>
-8.26937

>  <SCORE.INTER.norm>
-0.0395169

>  <SCORE.INTRA>
-1.48922

>  <SCORE.INTRA.DIHEDRAL>
-0.869998

>  <SCORE.INTRA.DIHEDRAL.0>
1.34757

>  <SCORE.INTRA.POLAR>
0

>  <SCORE.INTRA.POLAR.0>
0

>  <SCORE.INTRA.REPUL>
0

>  <SCORE.INTRA.REPUL.0>
0

>  <SCORE.INTRA.VDW>
-1.05422

>  <SCORE.INTRA.VDW.0>
0.605696

>  <SCORE.INTRA.norm>
-0.0676917

>  <SCORE.RESTR>
0.00191087

>  <SCORE.RESTR.CAVITY>
0.00191087

>  <SCORE.RESTR.norm>
8.68577e-05

>  <SCORE.SYSTEM>
42.2627

>  <SCORE.SYSTEM.CONST>
0

>  <SCORE.SYSTEM.DIHEDRAL>
1.29547

>  <SCORE.SYSTEM.POLAR>
-0.483793

>  <SCORE.SYSTEM.VDW>
43.2599

>  <SCORE.SYSTEM.norm>
1.92103

>  <SCORE.heavy>
22

>  <SCORE.norm>
1.81391

$$$$
U05.pdb
  rDOCK(R)          3D
libRbt.so/2013.1/901 2013/11/27
 22 24  0  0  0  0  0  0  0  0999 V2000
   -1.6976  -31.9600   21.5821 N   0  0  0  0  0  0
   -2.1012  -31.4734   20.3573 C   0  0  0  0  0  0
   -3.2787  -30.7155   20.2098 C   0  0  0  0  0  0
   -4.0736  -30.4354   21.3832 C   0  0  0  0  0  0
   -3.6435  -30.9200   22.6202 C   0  0  0  0  0  0
   -4.4627  -30.6030   23.8695 C   0  0  0  0  0  0
   -5.6802  -30.5040   23.7232 O   0  0  0  0  0  0
   -3.8919  -30.3839   25.0849 N   0  0  0  0  0  0
   -4.7983  -30.1922   26.2537 C   0  0  0  0  0  0
   -2.4646  -30.3858   25.4465 C   0  0  0  0  0  0
   -1.9663  -29.5061   26.4265 C   0  0  0  0  0  0
   -0.5703  -29.4665   26.7223 C   0  0  0  0  0  0
    0.3260  -30.3036   26.0434 C   0  0  0  0  0  0
    1.8384  -30.2523   26.3211 N   0  0  0  0  0  0
    2.2780  -29.4497   27.1460 O   0  0  0  0  0  0
    2.5364  -30.9973   25.6826 O   0  0  0  0  0  0
   -0.1874  -31.1867   25.0916 C   0  0  0  0  0  0
   -1.5706  -31.2312   24.8107 C   0  0  0  0  0  0
   -2.1242  -32.1850   23.9593 N   0  0  0  0  0  0
   -1.6579  -33.6549   24.1385 C   0  0  0  0  0  0
   -2.5821  -34.6726   23.6151 C   0  0  0  0  0  0
   -2.4615  -31.6866   22.6824 C   0  0  0  0  0  0
  1  2  2  0  0  0
  1 22  1  0  0  0
  2  3  1  0  0  0
  3  4  2  0  0  0
  4  5  1  0  0  0
  5  6  1  0  0  0
  5 22  2  0  0  0
  6  7  2  0  0  0
  6  8  1  0  0  0
  8  9  1  0  0  0
  8 10  1  0  0  0
 10 11  2  0  0  0
 10 18  1  0  0  0
 11 12  1  0  0  0
 12 13  2  0  0  0
 13 14  1  0  0  0
 13 17  1  0  0  0
 14 15  2  0  0  0
 14 16  2  0  0  0
 17 18  2  0  0  0
 18 19  1  0  0  0
 19 20  1  0  0  0
 19 22  1  0  0  0
 20 21  1  0  0  0
M  END
>  <CHROM.0>
-94.74829088,-21.37157903,-177.53471351,-178.84417147,-177.21889495,7.79102962
109.91462195,171.70177271

>  <CHROM.1>
-0.82323953,157.99907870,-1.87857776,-31.02060870,24.28238048,-2.46433648
-0.17390695,1.09619149

>  <FORMUL>
      U05    C15 H14 N4 O3

>  <HET>
 U05  A 999      22

>  <HETNAM>
     U05 6,11-DIHYDRO-11-ETHYL-6-METHYL-9-NITRO-5H-PYRIDO[2,3-B]
   2 U05 [1,5]BENZODIAZEPIN-5-ONE

>  <HETSYN>
     U05 1051U91

>  <Name>
U05.pdb

>  <RI>
4.37618e+07

>  <Rbt.Current_Directory>
/home/malgorzata/Desktop/rDOCK_IFD/Wyniki/10_hiv_rt/IFD

>  <Rbt.Executable>
rbdock ($Id: //depot/dev/client3/rdock/2013.1/src/exe/rbdock.cxx#4 $)

>  <Rbt.Library>
libRbt.so (2013.1, Build901 2013/11/27)

>  <Rbt.Parameter_File>
/home/malgorzata/Desktop/rDock_2013.1_src/data/scripts/dock.prm

>  <Rbt.Receptor>
cavity.prm

>  <SCORE>
39.988

>  <SCORE.INTER>
-1.03038

>  <SCORE.INTER.CONST>
1

>  <SCORE.INTER.POLAR>
0

>  <SCORE.INTER.REPUL>
0

>  <SCORE.INTER.ROT>
2

>  <SCORE.INTER.VDW>
-8.43038

>  <SCORE.INTER.norm>
-0.0468355

>  <SCORE.INTRA>
-1.486

>  <SCORE.INTRA.DIHEDRAL>
-0.969298

>  <SCORE.INTRA.DIHEDRAL.0>
1.34757

>  <SCORE.INTRA.POLAR>
0

>  <SCORE.INTRA.POLAR.0>
0

>  <SCORE.INTRA.REPUL>
0

>  <SCORE.INTRA.REPUL.0>
0

>  <SCORE.INTRA.VDW>
-1.00135

>  <SCORE.INTRA.VDW.0>
0.605696

>  <SCORE.INTRA.norm>
-0.0675454

>  <SCORE.RESTR>
0.0010503

>  <SCORE.RESTR.CAVITY>
0.0010503

>  <SCORE.RESTR.norm>
4.7741e-05

>  <SCORE.SYSTEM>
42.5033

>  <SCORE.SYSTEM.CONST>
0

>  <SCORE.SYSTEM.DIHEDRAL>
1.36773

>  <SCORE.SYSTEM.POLAR>
-0.593992

>  <SCORE.SYSTEM.VDW>
43.839

>  <SCORE.SYSTEM.norm>
1.93197

>  <SCORE.heavy>
22

>  <SCORE.norm>
1.81763

$$$$
U05.pdb
  rDOCK(R)          3D
libRbt.so/2013.1/901 2013/11/27
 22 24  0  0  0  0  0  0  0  0999 V2000
   -1.6992  -31.8544   21.5999 N   0  0  0  0  0  0
   -2.1404  -31.3657   20.3890 C   0  0  0  0  0  0
   -3.3431  -30.6425   20.2730 C   0  0  0  0  0  0
   -4.1239  -30.4013   21.4644 C   0  0  0  0  0  0
   -3.6559  -30.8873   22.6870 C   0  0  0  0  0  0
   -4.4607  -30.6109   23.9551 C   0  0  0  0  0  0
   -5.6832  -30.5475   23.8327 O   0  0  0  0  0  0
   -3.8740  -30.3890   25.1625 N   0  0  0  0  0  0
   -4.7636  -30.2394   26.3501 C   0  0  0  0  0  0
   -2.4407  -30.3514   25.4975 C   0  0  0  0  0  0
   -1.9510  -29.4688   26.4792 C   0  0  0  0  0  0
   -0.5515  -29.3899   26.7496 C   0  0  0  0  0  0
    0.3569  -30.1908   26.0437 C   0  0  0  0  0  0
    1.8720  -30.0965   26.2939 N   0  0  0  0  0  0
    2.3024  -29.2912   27.1212 O   0  0  0  0  0  0
    2.5803  -30.8114   25.6328 O   0  0  0  0  0  0
   -0.1473  -31.0777   25.0904 C   0  0  0  0  0  0
   -1.5335  -31.1613   24.8346 C   0  0  0  0  0  0
   -2.0738  -32.1212   23.9816 N   0  0  0  0  0  0
   -1.5595  -33.5781   24.1335 C   0  0  0  0  0  0
   -2.4957  -34.6216   23.6879 C   0  0  0  0  0  0
   -2.4501  -31.6180   22.7176 C   0  0  0  0  0  0
  1  2  2  0  0  0
  1 22  1  0  0  0
  2  3  1  0  0  0
  3  4  2  0  0  0
  4  5  1  0  0  0
  5  6  1  0  0  0
  5 22  2  0  0  0
  6  7  2  0  0  0
  6  8  1  0  0  0
  8  9  1  0  0  0
  8 10  1  0  0  0
 10 11  2  0  0  0
 10 18  1  0  0  0
 11 12  1  0  0  0
 12 13  2  0  0  0
 13 14  1  0  0  0
 13 17  1  0  0  0
 14 15  2  0  0  0
 14 16  2  0  0  0
 17 18  2  0  0  0
 18 19  1  0  0  0
 19 20  1  0  0  0
 19 22  1  0  0  0
 20 21  1  0  0  0
M  END
>  <CHROM.0>
132.15086923,-20.71383991,-57.56369040,-3.11225808,-179.24056713,7.27818030
-143.90778644,53.37741225

>  <CHROM.1>
-0.78640827,154.51658123,-1.85936949,-30.95404140,24.31849232,-2.46827788
-0.13512851,1.11183973

>  <FORMUL>
      U05    C15 H14 N4 O3

>  <HET>
 U05  A 999      22

>  <HETNAM>
     U05 6,11-DIHYDRO-11-ETHYL-6-METHYL-9-NITRO-5H-PYRIDO[2,3-B]
   2 U05 [1,5]BENZODIAZEPIN-5-ONE

>  <HETSYN>
     U05 1051U91

>  <Name>
U05.pdb

>  <RI>
4.37618e+07

>  <Rbt.Current_Directory>
/home/malgorzata/Desktop/rDOCK_IFD/Wyniki/10_hiv_rt/IFD

>  <Rbt.Executable>
rbdock ($Id: //depot/dev/client3/rdock/2013.1/src/exe/rbdock.cxx#4 $)

>  <Rbt.Library>
libRbt.so (2013.1, Build901 2013/11/27)

>  <Rbt.Parameter_File>
/home/malgorzata/Desktop/rDock_2013.1_src/data/scripts/dock.prm

>  <Rbt.Receptor>
cavity.prm

>  <SCORE>
39.7264

>  <SCORE.INTER>
-0.971126

>  <SCORE.INTER.CONST>
1

>  <SCORE.INTER.POLAR>
0

>  <SCORE.INTER.REPUL>
0

>  <SCORE.INTER.ROT>
2

>  <SCORE.INTER.VDW>
-8.37113

>  <SCORE.INTER.norm>
-0.0441421

>  <SCORE.INTRA>
-1.49007

>  <SCORE.INTRA.DIHEDRAL>
-0.883656

>  <SCORE.INTRA.DIHEDRAL.0>
1.34757

>  <SCORE.INTRA.POLAR>
0

>  <SCORE.INTRA.POLAR.0>
0

>  <SCORE.INTRA.REPUL>
0

>  <SCORE.INTRA.REPUL.0>
0

>  <SCORE.INTRA.VDW>
-1.04824

>  <SCORE.INTRA.VDW.0>
0.605696

>  <SCORE.INTRA.norm>
-0.0677306

>  <SCORE.RESTR>
0

>  <SCORE.RESTR.CAVITY>
0

>  <SCORE.RESTR.norm>
0

>  <SCORE.SYSTEM>
42.1876

>  <SCORE.SYSTEM.CONST>
0

>  <SCORE.SYSTEM.DIHEDRAL>
1.30543

>  <SCORE.SYSTEM.POLAR>
-0.492371

>  <SCORE.SYSTEM.VDW>
43.2089

>  <SCORE.SYSTEM.norm>
1.91762

>  <SCORE.heavy>
22

>  <SCORE.norm>
1.80574

$$$$
