FLP.pdb
 OpenBabel02152121463D

 31 32  0  0  1  0  0  0  0  0999 V2000
   25.7030   25.5640   11.7310 C   0  0  0  0  0  0  0  0  0  0  0  0
   25.9650   24.8950   12.9470 C   0  0  0  0  0  0  0  0  0  0  0  0
   25.4500   23.6210   13.1640 C   0  0  0  0  0  0  0  0  0  0  0  0
   24.6770   23.0200   12.1690 C   0  0  0  0  0  0  0  0  0  0  0  0
   24.4210   23.6930   10.9590 C   0  0  0  0  0  0  0  0  0  0  0  0
   24.9370   24.9670   10.7450 C   0  0  0  0  0  0  0  0  0  0  0  0
   25.6920   22.9020   14.4740 C   0  0  0  0  0  0  0  0  0  0  0  0
   26.9670   22.9010   15.0900 C   0  0  0  0  0  0  0  0  0  0  0  0
   27.1540   22.2300   16.3370 C   0  0  0  0  0  0  0  0  0  0  0  0
   26.0390   21.5620   16.9510 C   0  0  0  0  0  0  0  0  0  0  0  0
   24.7930   21.5790   16.3360 C   0  0  0  0  0  0  0  0  0  0  0  0
   24.6100   22.2320   15.1130 C   0  0  0  0  0  0  0  0  0  0  0  0
   26.2080   20.7520   18.2200 C   0  0  2  0  0  0  0  0  0  0  0  0
   27.3880   21.2730   19.0370 C   0  0  0  0  0  0  0  0  0  0  0  0
   26.4410   19.2950   17.8220 C   0  0  0  0  0  0  0  0  0  0  0  0
   27.4480   18.9770   17.2390 O   0  0  0  0  0  0  0  0  0  0  0  0
   25.5420   18.3820   18.0790 O   0  0  0  0  0  0  0  0  0  0  0  0
   23.3820   22.2060   14.5300 F   0  0  0  0  0  0  0  0  0  0  0  0
   26.0873   26.5091   11.5759 H   0  0  0  0  0  0  0  0  0  0  0  0
   26.5381   25.3510   13.6741 H   0  0  0  0  0  0  0  0  0  0  0  0
   24.2903   22.0754   12.3214 H   0  0  0  0  0  0  0  0  0  0  0  0
   23.8491   23.2400   10.2291 H   0  0  0  0  0  0  0  0  0  0  0  0
   24.7503   25.4624    9.8591 H   0  0  0  0  0  0  0  0  0  0  0  0
   27.7595   23.3841   14.6389 H   0  0  0  0  0  0  0  0  0  0  0  0
   28.0800   22.2248   16.7925 H   0  0  0  0  0  0  0  0  0  0  0  0
   23.9946   21.1049   16.7864 H   0  0  0  0  0  0  0  0  0  0  0  0
   25.3308   20.8355   18.8269 H   0  0  0  0  0  0  0  0  0  0  0  0
   28.2834   21.2024   18.4554 H   0  0  0  0  0  0  0  0  0  0  0  0
   27.4930   20.6867   19.9259 H   0  0  0  0  0  0  0  0  0  0  0  0
   27.2146   22.2950   19.3023 H   0  0  0  0  0  0  0  0  0  0  0  0
   24.7547   18.6139   18.5311 H   0  0  0  0  0  0  0  0  0  0  0  0
  1  2  2  0  0  0  0
  1 19  1  0  0  0  0
  2  3  1  0  0  0  0
  2 20  1  0  0  0  0
  3  7  1  0  0  0  0
  4  3  2  0  0  0  0
  4 21  1  0  0  0  0
  5  4  1  0  0  0  0
  5 22  1  0  0  0  0
  6  5  2  0  0  0  0
  6  1  1  0  0  0  0
  6 23  1  0  0  0  0
  7  8  2  0  0  0  0
  7 12  1  0  0  0  0
  8  9  1  0  0  0  0
  8 24  1  0  0  0  0
  9 10  2  0  0  0  0
  9 25  1  0  0  0  0
 10 13  1  0  0  0  0
 11 10  1  0  0  0  0
 11 26  1  0  0  0  0
 12 11  2  0  0  0  0
 13 14  1  0  0  0  0
 13 27  1  1  0  0  0
 14 28  1  0  0  0  0
 14 29  1  0  0  0  0
 14 30  1  0  0  0  0
 15 17  1  0  0  0  0
 15 13  1  0  0  0  0
 16 15  2  0  0  0  0
 17 31  1  0  0  0  0
 18 12  1  0  0  0  0
M  END
>  <HET>
 FLP  A 701      18

>  <HETNAM>
     FLP FLURBIPROFEN

>  <FORMUL>
      FLP    C15 H13 F1 O2

$$$$
