@<TRIPOS>MOLECULE
pose2.pdb
 31 32 0 0 0
SMALL
GASTEIGER

@<TRIPOS>ATOM
      1  C1        27.3020   20.0090   17.2020 C.ar    1  LIG1       -0.0612
      2  C2        25.9160   20.2600   17.1010 C.ar    1  LIG1       -0.0539
      3  C3        25.3780   21.4170   17.6560 C.ar    1  LIG1       -0.0151
      4  C4        26.2230   22.3170   18.3080 C.ar    1  LIG1       -0.0539
      5  C5        27.6040   22.0590   18.4030 C.ar    1  LIG1       -0.0612
      6  C6        28.1390   20.9010   17.8480 C.ar    1  LIG1       -0.0617
      7  C7        23.8900   21.6880   17.5880 C.ar    1  LIG1        0.0173
      8  C8        23.3840   22.8840   17.0260 C.ar    1  LIG1       -0.0510
      9  C9        21.9730   23.0970   16.9590 C.ar    1  LIG1       -0.0570
     10  C10       21.0840   22.0870   17.4660 C.ar    1  LIG1       -0.0312
     11  C11       21.5980   20.9160   18.0080 C.ar    1  LIG1       -0.0219
     12  C12       22.9790   20.7090   18.0780 C.ar    1  LIG1        0.1313
     13  C13       19.5860   22.3080   17.5110 C.3     1  LIG1        0.0785
     14  C14       19.0560   22.1140   18.9290 C.3     1  LIG1       -0.0482
     15  C15       18.9330   21.3050   16.5600 C.2     1  LIG1        0.3119
     16  O1        18.9110   20.1310   16.8350 O.2     1  LIG1       -0.2503
     17  O2        18.4190   21.7000   15.4250 O.3     1  LIG1       -0.4802
     18  F1        23.4450   19.5610   18.6380 F       1  LIG1       -0.2048
     19  H1        18.2560   21.0780   14.7430 H       1  LIG1        0.2951
     20 H          27.6955   19.1492   16.7886 H       1  LIG1        0.0618
     21 H          25.3029   19.5862   16.6162 H       1  LIG1        0.0624
     22 H          25.8327   23.1774   18.7232 H       1  LIG1        0.0624
     23 H          28.2210   22.7308   18.8857 H       1  LIG1        0.0618
     24 H          29.1506   20.7092   17.9175 H       1  LIG1        0.0618
     25 H          24.0329   23.6008   16.6653 H       1  LIG1        0.0625
     26 H          21.5957   23.9666   16.5510 H       1  LIG1        0.0621
     27 H          20.9542   20.1915   18.3626 H       1  LIG1        0.0649
     28 H          19.3550   23.3091   17.2122 H       1  LIG1        0.0459
     29 H          19.2723   21.1189   19.2576 H       1  LIG1        0.0241
     30 H          17.9976   22.2707   18.9387 H       1  LIG1        0.0241
     31 H          19.5266   22.8164   19.5849 H       1  LIG1        0.0241
@<TRIPOS>BOND
     1     1     2   ar
     2     1     6   ar
     3     2     3   ar
     4     3     7    1
     5     3     4   ar
     6     4     5   ar
     7     5     6   ar
     8     7     8   ar
     9     7    12   ar
    10     8     9   ar
    11     9    10   ar
    12    10    13    1
    13    10    11   ar
    14    11    12   ar
    15    12    18    1
    16    13    14    1
    17    13    15    1
    18    15    17    1
    19    15    16    2
    20    17    19    1
    21     1    20    1
    22     2    21    1
    23     4    22    1
    24     5    23    1
    25     6    24    1
    26     8    25    1
    27     9    26    1
    28    11    27    1
    29    13    28    1
    30    14    29    1
    31    14    30    1
    32    14    31    1
