@<TRIPOS>MOLECULE
pose8.pdb
 31 32 0 0 0
SMALL
GASTEIGER

@<TRIPOS>ATOM
      1  C1        27.0150   21.3190   18.5980 C.ar    1  LIG1       -0.0612
      2  C2        25.6030   21.3730   18.5860 C.ar    1  LIG1       -0.0539
      3  C3        24.9060   21.0540   17.4250 C.ar    1  LIG1       -0.0151
      4  C4        25.6170   20.6840   16.2820 C.ar    1  LIG1       -0.0539
      5  C5        27.0240   20.6330   16.3020 C.ar    1  LIG1       -0.0612
      6  C6        27.7190   20.9520   17.4650 C.ar    1  LIG1       -0.0617
      7  C7        23.3950   21.1380   17.3830 C.ar    1  LIG1        0.0173
      8  C8        22.6030   20.7170   18.4790 C.ar    1  LIG1       -0.0510
      9  C9        21.1800   20.8300   18.4130 C.ar    1  LIG1       -0.0570
     10  C10       20.5710   21.3720   17.2290 C.ar    1  LIG1       -0.0312
     11  C11       21.3650   21.7870   16.1660 C.ar    1  LIG1       -0.0219
     12  C12       22.7570   21.6730   16.2280 C.ar    1  LIG1        0.1313
     13  C13       19.0660   21.4200   17.0690 C.3     1  LIG1        0.0785
     14  C14       18.4190   22.1040   18.2710 C.3     1  LIG1       -0.0482
     15  C15       18.5590   19.9840   16.9410 C.2     1  LIG1        0.3119
     16  O1        17.3930   19.7670   16.7230 O.2     1  LIG1       -0.2503
     17  O2        19.3740   18.9740   17.0960 O.3     1  LIG1       -0.4802
     18  F1        23.4980   22.0660   15.1580 F       1  LIG1       -0.2048
     19  H1        19.0330   18.1040   17.1740 H       1  LIG1        0.2951
     20 H          27.5271   21.5561   19.4621 H       1  LIG1        0.0618
     21 H          25.0894   21.6488   19.4376 H       1  LIG1        0.0624
     22 H          25.1079   20.4462   15.4164 H       1  LIG1        0.0624
     23 H          27.5412   20.3584   15.4522 H       1  LIG1        0.0618
     24 H          28.7502   20.9151   17.4820 H       1  LIG1        0.0618
     25 H          23.0525   20.3295   19.3233 H       1  LIG1        0.0625
     26 H          20.5955   20.5256   19.2072 H       1  LIG1        0.0621
     27 H          20.9222   22.1834   15.3223 H       1  LIG1        0.0649
     28 H          18.8090   21.9841   16.1968 H       1  LIG1        0.0459
     29 H          18.6584   21.5615   19.1616 H       1  LIG1        0.0241
     30 H          17.3572   22.1249   18.1406 H       1  LIG1        0.0241
     31 H          18.7880   23.1050   18.3531 H       1  LIG1        0.0241
@<TRIPOS>BOND
     1     1     2   ar
     2     1     6   ar
     3     2     3   ar
     4     3     7    1
     5     3     4   ar
     6     4     5   ar
     7     5     6   ar
     8     7     8   ar
     9     7    12   ar
    10     8     9   ar
    11     9    10   ar
    12    10    13    1
    13    10    11   ar
    14    11    12   ar
    15    12    18    1
    16    13    14    1
    17    13    15    1
    18    15    17    1
    19    15    16    2
    20    17    19    1
    21     1    20    1
    22     2    21    1
    23     4    22    1
    24     5    23    1
    25     6    24    1
    26     8    25    1
    27     9    26    1
    28    11    27    1
    29    13    28    1
    30    14    29    1
    31    14    30    1
    32    14    31    1
