@<TRIPOS>MOLECULE
pose1.pdb
 31 32 0 0 0
SMALL
GASTEIGER

@<TRIPOS>ATOM
      1  C1        18.1780   21.2840   18.0400 C.ar    1  LIG1       -0.0612
      2  C2        19.3690   20.5250   18.0440 C.ar    1  LIG1       -0.0539
      3  C3        20.5630   21.1030   17.6260 C.ar    1  LIG1       -0.0151
      4  C4        20.5650   22.4350   17.2060 C.ar    1  LIG1       -0.0539
      5  C5        19.3740   23.1850   17.2060 C.ar    1  LIG1       -0.0612
      6  C6        18.1810   22.6040   17.6240 C.ar    1  LIG1       -0.0617
      7  C7        21.8430   20.2960   17.5920 C.ar    1  LIG1        0.0173
      8  C8        23.1060   20.9060   17.7870 C.ar    1  LIG1       -0.0510
      9  C9        24.2910   20.1100   17.7690 C.ar    1  LIG1       -0.0570
     10  C10       24.1840   18.6930   17.5530 C.ar    1  LIG1       -0.0312
     11  C11       22.9360   18.1090   17.3710 C.ar    1  LIG1       -0.0219
     12  C12       21.7750   18.8890   17.3840 C.ar    1  LIG1        0.1313
     13  C13       25.4160   17.8200   17.4250 C.3     1  LIG1        0.0785
     14  C14       25.9070   17.7930   15.9800 C.3     1  LIG1       -0.0482
     15  C15       25.0460   16.4110   17.8860 C.2     1  LIG1        0.3119
     16  O1        25.5060   15.9640   18.9080 O.2     1  LIG1       -0.2503
     17  O2        24.2530   15.6610   17.1670 O.3     1  LIG1       -0.4802
     18  F1        20.5750   18.2850   17.1780 F       1  LIG1       -0.2048
     19  H1        24.0560   15.9010   16.2820 H       1  LIG1        0.2951
     20 H          17.2952   20.8493   18.3509 H       1  LIG1        0.0618
     21 H          19.3534   19.5417   18.3570 H       1  LIG1        0.0624
     22 H          21.4459   22.8724   16.8935 H       1  LIG1        0.0624
     23 H          19.3857   24.1689   16.8950 H       1  LIG1        0.0618
     24 H          17.3066   23.1521   17.6239 H       1  LIG1        0.0618
     25 H          23.1697   21.9243   17.9419 H       1  LIG1        0.0625
     26 H          25.2150   20.5475   17.9096 H       1  LIG1        0.0621
     27 H          22.8652   17.0899   17.2248 H       1  LIG1        0.0649
     28 H          26.2070   18.2122   18.0295 H       1  LIG1        0.0459
     29 H          25.1357   17.4043   15.3484 H       1  LIG1        0.0241
     30 H          26.7738   17.1696   15.9094 H       1  LIG1        0.0241
     31 H          26.1557   18.7862   15.6692 H       1  LIG1        0.0241
@<TRIPOS>BOND
     1     1     2   ar
     2     1     6   ar
     3     2     3   ar
     4     3     7    1
     5     3     4   ar
     6     4     5   ar
     7     5     6   ar
     8     7     8   ar
     9     7    12   ar
    10     8     9   ar
    11     9    10   ar
    12    10    13    1
    13    10    11   ar
    14    11    12   ar
    15    12    18    1
    16    13    14    1
    17    13    15    1
    18    15    17    1
    19    15    16    2
    20    17    19    1
    21     1    20    1
    22     2    21    1
    23     4    22    1
    24     5    23    1
    25     6    24    1
    26     8    25    1
    27     9    26    1
    28    11    27    1
    29    13    28    1
    30    14    29    1
    31    14    30    1
    32    14    31    1
