@<TRIPOS>MOLECULE
pose4.pdb
 31 32 0 0 0
SMALL
GASTEIGER

@<TRIPOS>ATOM
      1  C1        24.3200   23.0750    9.8500 C.ar    1  LIG1       -0.0612
      2  C2        24.5910   22.7040   11.1850 C.ar    1  LIG1       -0.0539
      3  C3        25.4020   23.5090   11.9790 C.ar    1  LIG1       -0.0151
      4  C4        25.9380   24.6790   11.4390 C.ar    1  LIG1       -0.0539
      5  C5        25.6620   25.0430   10.1070 C.ar    1  LIG1       -0.0612
      6  C6        24.8510   24.2360    9.3160 C.ar    1  LIG1       -0.0617
      7  C7        25.7320   23.1100   13.4020 C.ar    1  LIG1        0.0173
      8  C8        26.7670   23.7500   14.1260 C.ar    1  LIG1       -0.0510
      9  C9        27.0370   23.3630   15.4740 C.ar    1  LIG1       -0.0570
     10  C10       26.2490   22.3230   16.0790 C.ar    1  LIG1       -0.0312
     11  C11       25.2320   21.7110   15.3560 C.ar    1  LIG1       -0.0219
     12  C12       24.9700   22.0870   14.0350 C.ar    1  LIG1        0.1313
     13  C13       26.5600   21.8070   17.4680 C.3     1  LIG1        0.0785
     14  C14       26.6830   22.9650   18.4570 C.3     1  LIG1       -0.0482
     15  C15       27.8730   21.0280   17.3990 C.2     1  LIG1        0.3119
     16  O1        28.7760   21.2870   18.1560 O.2     1  LIG1       -0.2503
     17  O2        28.0470   20.0950   16.5010 O.3     1  LIG1       -0.4802
     18  F1        23.9830   21.4480   13.3520 F       1  LIG1       -0.2048
     19  H1        27.4860   20.0550   15.7510 H       1  LIG1        0.2951
     20 H          23.7189   22.4733    9.2655 H       1  LIG1        0.0618
     21 H          24.1878   21.8363   11.5717 H       1  LIG1        0.0624
     22 H          26.5411   25.2819   12.0202 H       1  LIG1        0.0624
     23 H          26.0624   25.9105    9.7168 H       1  LIG1        0.0618
     24 H          24.6471   24.5007    8.3396 H       1  LIG1        0.0618
     25 H          27.3253   24.4948   13.6804 H       1  LIG1        0.0625
     26 H          27.7896   23.8247   16.0083 H       1  LIG1        0.0621
     27 H          24.6644   20.9715   15.7987 H       1  LIG1        0.0649
     28 H          25.7686   21.1721   17.8078 H       1  LIG1        0.0459
     29 H          27.4690   23.6199   18.1435 H       1  LIG1        0.0241
     30 H          26.9060   22.5806   19.4303 H       1  LIG1        0.0241
     31 H          25.7602   23.5056   18.4898 H       1  LIG1        0.0241
@<TRIPOS>BOND
     1     1     2   ar
     2     1     6   ar
     3     2     3   ar
     4     3     7    1
     5     3     4   ar
     6     4     5   ar
     7     5     6   ar
     8     7     8   ar
     9     7    12   ar
    10     8     9   ar
    11     9    10   ar
    12    10    13    1
    13    10    11   ar
    14    11    12   ar
    15    12    18    1
    16    13    14    1
    17    13    15    1
    18    15    17    1
    19    15    16    2
    20    17    19    1
    21     1    20    1
    22     2    21    1
    23     4    22    1
    24     5    23    1
    25     6    24    1
    26     8    25    1
    27     9    26    1
    28    11    27    1
    29    13    28    1
    30    14    29    1
    31    14    30    1
    32    14    31    1
