@<TRIPOS>MOLECULE
pose9.pdb
 31 32 0 0 0
SMALL
GASTEIGER

@<TRIPOS>ATOM
      1  C1        18.8380   22.7630   16.5120 C.ar    1  LIG1       -0.0612
      2  C2        20.1410   22.2560   16.3090 C.ar    1  LIG1       -0.0539
      3  C3        20.8450   21.7030   17.3730 C.ar    1  LIG1       -0.0151
      4  C4        20.2470   21.6560   18.6340 C.ar    1  LIG1       -0.0539
      5  C5        18.9480   22.1630   18.8280 C.ar    1  LIG1       -0.0612
      6  C6        18.2470   22.7160   17.7620 C.ar    1  LIG1       -0.0617
      7  C7        22.2550   21.1860   17.1830 C.ar    1  LIG1        0.0173
      8  C8        23.2820   22.0160   16.6730 C.ar    1  LIG1       -0.0510
      9  C9        24.6060   21.5010   16.5260 C.ar    1  LIG1       -0.0570
     10  C10       24.8770   20.1390   16.9000 C.ar    1  LIG1       -0.0312
     11  C11       23.8580   19.3400   17.4050 C.ar    1  LIG1       -0.0219
     12  C12       22.5610   19.8430   17.5450 C.ar    1  LIG1        0.1313
     13  C13       26.2380   19.5150   16.6700 C.3     1  LIG1        0.0785
     14  C14       26.8240   19.9810   15.3390 C.3     1  LIG1       -0.0482
     15  C15       26.0670   17.9970   16.6720 C.2     1  LIG1        0.3119
     16  O1        26.0310   17.3900   17.7130 O.2     1  LIG1       -0.2503
     17  O2        25.9900   17.3330   15.5480 O.3     1  LIG1       -0.4802
     18  F1        21.5850   19.0230   18.0200 F       1  LIG1       -0.2048
     19  H1        25.5270   16.5190   15.5160 H       1  LIG1        0.2951
     20 H          18.3210   23.1732   15.7186 H       1  LIG1        0.0618
     21 H          20.5702   22.2961   15.3713 H       1  LIG1        0.0624
     22 H          20.7611   21.2466   19.4297 H       1  LIG1        0.0624
     23 H          18.5149   22.1241   19.7639 H       1  LIG1        0.0618
     24 H          17.2946   23.0880   17.9020 H       1  LIG1        0.0618
     25 H          23.0744   22.9915   16.4079 H       1  LIG1        0.0625
     26 H          25.3603   22.0999   16.1553 H       1  LIG1        0.0621
     27 H          24.0607   18.3660   17.6793 H       1  LIG1        0.0649
     28 H          26.9135   19.8132   17.4444 H       1  LIG1        0.0459
     29 H          26.1692   19.6967   14.5420 H       1  LIG1        0.0241
     30 H          27.7819   19.5272   15.1926 H       1  LIG1        0.0241
     31 H          26.9315   21.0455   15.3498 H       1  LIG1        0.0241
@<TRIPOS>BOND
     1     1     2   ar
     2     1     6   ar
     3     2     3   ar
     4     3     7    1
     5     3     4   ar
     6     4     5   ar
     7     5     6   ar
     8     7     8   ar
     9     7    12   ar
    10     8     9   ar
    11     9    10   ar
    12    10    13    1
    13    10    11   ar
    14    11    12   ar
    15    12    18    1
    16    13    14    1
    17    13    15    1
    18    15    17    1
    19    15    16    2
    20    17    19    1
    21     1    20    1
    22     2    21    1
    23     4    22    1
    24     5    23    1
    25     6    24    1
    26     8    25    1
    27     9    26    1
    28    11    27    1
    29    13    28    1
    30    14    29    1
    31    14    30    1
    32    14    31    1
