@<TRIPOS>MOLECULE
pose0.pdb
 31 32 0 0 0
SMALL
GASTEIGER

@<TRIPOS>ATOM
      1  C1        27.9690   20.8510   16.8560 C.ar    1  LIG1       -0.0612
      2  C2        26.5610   20.8430   16.7440 C.ar    1  LIG1       -0.0539
      3  C3        25.7730   20.9340   17.8870 C.ar    1  LIG1       -0.0151
      4  C4        26.3910   21.0340   19.1350 C.ar    1  LIG1       -0.0539
      5  C5        27.7950   21.0420   19.2380 C.ar    1  LIG1       -0.0612
      6  C6        28.5810   20.9500   18.0940 C.ar    1  LIG1       -0.0617
      7  C7        24.2630   20.8940   17.7900 C.ar    1  LIG1        0.0173
      8  C8        23.5120   19.8660   18.4100 C.ar    1  LIG1       -0.0510
      9  C9        22.0860   19.8710   18.3150 C.ar    1  LIG1       -0.0570
     10  C10       21.4330   20.9250   17.5880 C.ar    1  LIG1       -0.0312
     11  C11       22.1850   21.9290   16.9910 C.ar    1  LIG1       -0.0219
     12  C12       23.5810   21.9230   17.0800 C.ar    1  LIG1        0.1313
     13  C13       19.9330   20.9200   17.3730 C.3     1  LIG1        0.0785
     14  C14       19.5910   20.3960   15.9800 C.3     1  LIG1       -0.0482
     15  C15       19.4290   22.3530   17.5380 C.2     1  LIG1        0.3119
     16  O1        18.7440   22.8600   16.6840 O.2     1  LIG1       -0.2503
     17  O2        19.7570   23.0580   18.5880 O.3     1  LIG1       -0.4802
     18  F1        24.2840   22.9090   16.4620 F       1  LIG1       -0.2048
     19  H1        20.3280   22.6950   19.2370 H       1  LIG1        0.2951
     20 H          28.5485   20.7822   16.0049 H       1  LIG1        0.0618
     21 H          26.1172   20.7697   15.8152 H       1  LIG1        0.0624
     22 H          25.8144   21.1025   19.9881 H       1  LIG1        0.0624
     23 H          28.2424   21.1163   20.1650 H       1  LIG1        0.0618
     24 H          29.6104   20.9555   18.1673 H       1  LIG1        0.0618
     25 H          23.9932   19.1150   18.9292 H       1  LIG1        0.0625
     26 H          21.5309   19.1256   18.7637 H       1  LIG1        0.0621
     27 H          21.7091   22.6867   16.4768 H       1  LIG1        0.0649
     28 H          19.4632   20.2758   18.0865 H       1  LIG1        0.0459
     29 H          20.0479   21.0213   15.2416 H       1  LIG1        0.0241
     30 H          18.5294   20.4039   15.8467 H       1  LIG1        0.0241
     31 H          19.9561   19.3956   15.8757 H       1  LIG1        0.0241
@<TRIPOS>BOND
     1     1     2   ar
     2     1     6   ar
     3     2     3   ar
     4     3     7    1
     5     3     4   ar
     6     4     5   ar
     7     5     6   ar
     8     7     8   ar
     9     7    12   ar
    10     8     9   ar
    11     9    10   ar
    12    10    13    1
    13    10    11   ar
    14    11    12   ar
    15    12    18    1
    16    13    14    1
    17    13    15    1
    18    15    17    1
    19    15    16    2
    20    17    19    1
    21     1    20    1
    22     2    21    1
    23     4    22    1
    24     5    23    1
    25     6    24    1
    26     8    25    1
    27     9    26    1
    28    11    27    1
    29    13    28    1
    30    14    29    1
    31    14    30    1
    32    14    31    1
