@<TRIPOS>MOLECULE
pose3.pdb
 31 32 0 0 0
SMALL
GASTEIGER

@<TRIPOS>ATOM
      1  C1        18.5040   22.4740   18.6030 C.ar    1  LIG1       -0.0612
      2  C2        19.5170   21.4970   18.7200 C.ar    1  LIG1       -0.0539
      3  C3        20.0280   20.8860   17.5800 C.ar    1  LIG1       -0.0151
      4  C4        19.5290   21.2520   16.3290 C.ar    1  LIG1       -0.0539
      5  C5        18.5190   22.2280   16.2200 C.ar    1  LIG1       -0.0612
      6  C6        18.0100   22.8370   17.3620 C.ar    1  LIG1       -0.0617
      7  C7        21.0900   19.8130   17.6880 C.ar    1  LIG1        0.0173
      8  C8        20.8950   18.5240   17.1340 C.ar    1  LIG1       -0.0510
      9  C9        21.9270   17.5420   17.2360 C.ar    1  LIG1       -0.0570
     10  C10       23.1550   17.8790   17.9030 C.ar    1  LIG1       -0.0312
     11  C11       23.3330   19.1500   18.4350 C.ar    1  LIG1       -0.0219
     12  C12       22.3210   20.1110   18.3390 C.ar    1  LIG1        0.1313
     13  C13       24.2390   16.8440   18.1260 C.3     1  LIG1        0.0785
     14  C14       25.3160   16.9530   17.0490 C.3     1  LIG1       -0.0482
     15  C15       23.5880   15.4620   18.0870 C.2     1  LIG1        0.3119
     16  O1        22.8400   15.1170   18.9680 O.2     1  LIG1       -0.2503
     17  O2        23.8540   14.6270   17.1180 O.3     1  LIG1       -0.4802
     18  F1        22.5220   21.3360   18.8930 F       1  LIG1       -0.2048
     19  H1        23.5550   13.7410   17.1680 H       1  LIG1        0.2951
     20 H          18.1276   22.9226   19.4528 H       1  LIG1        0.0618
     21 H          19.8779   21.2366   19.6511 H       1  LIG1        0.0624
     22 H          19.9027   20.8043   15.4775 H       1  LIG1        0.0624
     23 H          18.1560   22.4917   15.2906 H       1  LIG1        0.0618
     24 H          17.2708   23.5530   17.2849 H       1  LIG1        0.0618
     25 H          20.0087   18.2949   16.6575 H       1  LIG1        0.0625
     26 H          21.7926   16.6006   16.8352 H       1  LIG1        0.0621
     27 H          24.2203   19.3874   18.9055 H       1  LIG1        0.0649
     28 H          24.7095   17.0058   19.0733 H       1  LIG1        0.0459
     29 H          24.8754   16.7955   16.0867 H       1  LIG1        0.0241
     30 H          26.0694   16.2131   17.2218 H       1  LIG1        0.0241
     31 H          25.7579   17.9268   17.0838 H       1  LIG1        0.0241
@<TRIPOS>BOND
     1     1     2   ar
     2     1     6   ar
     3     2     3   ar
     4     3     7    1
     5     3     4   ar
     6     4     5   ar
     7     5     6   ar
     8     7     8   ar
     9     7    12   ar
    10     8     9   ar
    11     9    10   ar
    12    10    13    1
    13    10    11   ar
    14    11    12   ar
    15    12    18    1
    16    13    14    1
    17    13    15    1
    18    15    17    1
    19    15    16    2
    20    17    19    1
    21     1    20    1
    22     2    21    1
    23     4    22    1
    24     5    23    1
    25     6    24    1
    26     8    25    1
    27     9    26    1
    28    11    27    1
    29    13    28    1
    30    14    29    1
    31    14    30    1
    32    14    31    1
