@<TRIPOS>MOLECULE
pose6.pdb
 31 32 0 0 0
SMALL
GASTEIGER

@<TRIPOS>ATOM
      1  C1        26.4300   23.7800   11.6270 C.ar    1  LIG1       -0.0612
      2  C2        26.0570   23.3400   12.9160 C.ar    1  LIG1       -0.0539
      3  C3        24.7240   23.0580   13.1950 C.ar    1  LIG1       -0.0151
      4  C4        23.7690   23.2150   12.1890 C.ar    1  LIG1       -0.0539
      5  C5        24.1480   23.6530   10.9060 C.ar    1  LIG1       -0.0612
      6  C6        25.4820   23.9350   10.6300 C.ar    1  LIG1       -0.0617
      7  C7        24.3000   22.6180   14.5810 C.ar    1  LIG1        0.0173
      8  C8        23.3000   23.3130   15.3020 C.ar    1  LIG1       -0.0510
      9  C9        22.9100   22.8570   16.5980 C.ar    1  LIG1       -0.0570
     10  C10       23.5430   21.6920   17.1540 C.ar    1  LIG1       -0.0312
     11  C11       24.5180   21.0170   16.4290 C.ar    1  LIG1       -0.0219
     12  C12       24.9040   21.4660   15.1620 C.ar    1  LIG1        0.1313
     13  C13       23.2390   21.2270   18.5630 C.3     1  LIG1        0.0785
     14  C14       24.5100   20.7390   19.2550 C.3     1  LIG1       -0.0482
     15  C15       22.2150   20.0960   18.4760 C.2     1  LIG1        0.3119
     16  O1        22.1310   19.4270   17.4750 O.2     1  LIG1       -0.2503
     17  O2        21.3990   19.8580   19.4680 O.3     1  LIG1       -0.4802
     18  F1        25.8790   20.7940   14.4940 F       1  LIG1       -0.2048
     19  H1        21.2470   20.5150   20.1180 H       1  LIG1        0.2951
     20 H          27.4205   23.9884   11.4259 H       1  LIG1        0.0618
     21 H          26.7731   23.2278   13.6505 H       1  LIG1        0.0624
     22 H          22.7776   23.0084   12.3874 H       1  LIG1        0.0624
     23 H          23.4348   23.7651   10.1686 H       1  LIG1        0.0618
     24 H          25.7625   24.2569    9.6904 H       1  LIG1        0.0618
     25 H          22.8533   24.1480   14.8919 H       1  LIG1        0.0625
     26 H          22.1815   23.3585   17.1298 H       1  LIG1        0.0621
     27 H          24.9617   20.1758   16.8298 H       1  LIG1        0.0649
     28 H          22.8475   22.0391   19.1393 H       1  LIG1        0.0459
     29 H          24.9273   19.9241   18.7011 H       1  LIG1        0.0241
     30 H          24.2736   20.4126   20.2462 H       1  LIG1        0.0241
     31 H          25.2196   21.5384   19.3025 H       1  LIG1        0.0241
@<TRIPOS>BOND
     1     1     2   ar
     2     1     6   ar
     3     2     3   ar
     4     3     7    1
     5     3     4   ar
     6     4     5   ar
     7     5     6   ar
     8     7     8   ar
     9     7    12   ar
    10     8     9   ar
    11     9    10   ar
    12    10    13    1
    13    10    11   ar
    14    11    12   ar
    15    12    18    1
    16    13    14    1
    17    13    15    1
    18    15    17    1
    19    15    16    2
    20    17    19    1
    21     1    20    1
    22     2    21    1
    23     4    22    1
    24     5    23    1
    25     6    24    1
    26     8    25    1
    27     9    26    1
    28    11    27    1
    29    13    28    1
    30    14    29    1
    31    14    30    1
    32    14    31    1
