@<TRIPOS>MOLECULE
pose7.pdb
 31 32 0 0 0
SMALL
GASTEIGER

@<TRIPOS>ATOM
      1  C1        23.8510   22.8480   10.7680 C.ar    1  LIG1       -0.0612
      2  C2        23.6980   22.3660   12.0870 C.ar    1  LIG1       -0.0539
      3  C3        24.2230   23.0860   13.1550 C.ar    1  LIG1       -0.0151
      4  C4        24.8970   24.2820   12.9050 C.ar    1  LIG1       -0.0539
      5  C5        25.0450   24.7560   11.5880 C.ar    1  LIG1       -0.0612
      6  C6        24.5200   24.0340   10.5210 C.ar    1  LIG1       -0.0617
      7  C7        24.0970   22.5680   14.5720 C.ar    1  LIG1        0.0173
      8  C8        23.2510   23.1990   15.5160 C.ar    1  LIG1       -0.0510
      9  C9        23.1410   22.6710   16.8380 C.ar    1  LIG1       -0.0570
     10  C10       23.8950   21.5000   17.1930 C.ar    1  LIG1       -0.0312
     11  C11       24.7160   20.8890   16.2530 C.ar    1  LIG1       -0.0219
     12  C12       24.8280   21.4080   14.9590 C.ar    1  LIG1        0.1313
     13  C13       23.8920   20.9600   18.6090 C.3     1  LIG1        0.0785
     14  C14       25.3090   20.6020   19.0510 C.3     1  LIG1       -0.0482
     15  C15       22.9980   19.7210   18.6390 C.2     1  LIG1        0.3119
     16  O1        23.1680   18.8290   17.8440 O.2     1  LIG1       -0.2503
     17  O2        22.0220   19.6230   19.5020 O.3     1  LIG1       -0.4802
     18  F1        25.6590   20.7970   14.0740 F       1  LIG1       -0.2048
     19  H1        21.9300   18.8480   20.0200 H       1  LIG1        0.2951
     20 H          23.4594   22.3095    9.9795 H       1  LIG1        0.0618
     21 H          23.1970   21.4802   12.2581 H       1  LIG1        0.0624
     22 H          25.2897   24.8228   13.6913 H       1  LIG1        0.0624
     23 H          25.5446   25.6420   11.4133 H       1  LIG1        0.0618
     24 H          24.6284   24.3795    9.5546 H       1  LIG1        0.0618
     25 H          22.7147   24.0393   15.2489 H       1  LIG1        0.0625
     26 H          22.5265   23.1254   17.5314 H       1  LIG1        0.0621
     27 H          25.2484   20.0438   16.5123 H       1  LIG1        0.0649
     28 H          23.5200   21.7029   19.2832 H       1  LIG1        0.0459
     29 H          25.7103   19.8586   18.3943 H       1  LIG1        0.0241
     30 H          25.2851   20.2199   20.0502 H       1  LIG1        0.0241
     31 H          25.9245   21.4766   19.0182 H       1  LIG1        0.0241
@<TRIPOS>BOND
     1     1     2   ar
     2     1     6   ar
     3     2     3   ar
     4     3     7    1
     5     3     4   ar
     6     4     5   ar
     7     5     6   ar
     8     7     8   ar
     9     7    12   ar
    10     8     9   ar
    11     9    10   ar
    12    10    13    1
    13    10    11   ar
    14    11    12   ar
    15    12    18    1
    16    13    14    1
    17    13    15    1
    18    15    17    1
    19    15    16    2
    20    17    19    1
    21     1    20    1
    22     2    21    1
    23     4    22    1
    24     5    23    1
    25     6    24    1
    26     8    25    1
    27     9    26    1
    28    11    27    1
    29    13    28    1
    30    14    29    1
    31    14    30    1
    32    14    31    1
