@<TRIPOS>MOLECULE
pose5.pdb
 31 32 0 0 0
SMALL
GASTEIGER

@<TRIPOS>ATOM
      1  C1        25.5260   23.6530   10.3450 C.ar    1  LIG1       -0.0612
      2  C2        25.3820   23.4950   11.7410 C.ar    1  LIG1       -0.0539
      3  C3        24.7560   22.3630   12.2520 C.ar    1  LIG1       -0.0151
      4  C4        24.2760   21.3930   11.3700 C.ar    1  LIG1       -0.0539
      5  C5        24.4250   21.5570    9.9790 C.ar    1  LIG1       -0.0612
      6  C6        25.0510   22.6900    9.4710 C.ar    1  LIG1       -0.0617
      7  C7        24.5620   22.1930   13.7440 C.ar    1  LIG1        0.0173
      8  C8        23.5980   22.9500   14.4530 C.ar    1  LIG1       -0.0510
      9  C9        23.4280   22.7480   15.8570 C.ar    1  LIG1       -0.0570
     10  C10       24.2420   21.7740   16.5320 C.ar    1  LIG1       -0.0312
     11  C11       25.1780   21.0350   15.8180 C.ar    1  LIG1       -0.0219
     12  C12       25.3490   21.2350   14.4450 C.ar    1  LIG1        0.1313
     13  C13       24.1710   21.5930   18.0340 C.3     1  LIG1        0.0785
     14  C14       25.5710   21.6060   18.6440 C.3     1  LIG1       -0.0482
     15  C15       23.4820   20.2590   18.3170 C.2     1  LIG1        0.3119
     16  O1        22.4730   20.2230   18.9770 O.2     1  LIG1       -0.2503
     17  O2        23.9910   19.1390   17.8760 O.3     1  LIG1       -0.4802
     18  F1        26.2910   20.5100   13.7860 F       1  LIG1       -0.2048
     19  H1        24.9090   19.0810   17.6950 H       1  LIG1        0.2951
     20 H          25.9905   24.4958    9.9722 H       1  LIG1        0.0618
     21 H          25.7413   24.2196   12.3820 H       1  LIG1        0.0624
     22 H          23.8089   20.5502   11.7396 H       1  LIG1        0.0624
     23 H          24.0684   20.8339    9.3348 H       1  LIG1        0.0618
     24 H          25.1605   22.8119    8.4521 H       1  LIG1        0.0618
     25 H          23.0197   23.6459   13.9567 H       1  LIG1        0.0625
     26 H          22.7280   23.2957   16.3814 H       1  LIG1        0.0621
     27 H          25.7530   20.3310   16.3067 H       1  LIG1        0.0649
     28 H          23.6179   22.3968   18.4732 H       1  LIG1        0.0459
     29 H          26.1506   20.8109   18.2236 H       1  LIG1        0.0241
     30 H          25.4997   21.4738   19.7034 H       1  LIG1        0.0241
     31 H          26.0436   22.5424   18.4324 H       1  LIG1        0.0241
@<TRIPOS>BOND
     1     1     2   ar
     2     1     6   ar
     3     2     3   ar
     4     3     7    1
     5     3     4   ar
     6     4     5   ar
     7     5     6   ar
     8     7     8   ar
     9     7    12   ar
    10     8     9   ar
    11     9    10   ar
    12    10    13    1
    13    10    11   ar
    14    11    12   ar
    15    12    18    1
    16    13    14    1
    17    13    15    1
    18    15    17    1
    19    15    16    2
    20    17    19    1
    21     1    20    1
    22     2    21    1
    23     4    22    1
    24     5    23    1
    25     6    24    1
    26     8    25    1
    27     9    26    1
    28    11    27    1
    29    13    28    1
    30    14    29    1
    31    14    30    1
    32    14    31    1
