REMARK  11 active torsions:
REMARK  status: ('A' for Active; 'I' for Inactive)
REMARK    1  A    between atoms: C2_2  and  C11_11 
REMARK    2  A    between atoms: N1_5  and  O1_38 
REMARK    3  A    between atoms: C8_8  and  C13_13 
REMARK       I    between atoms: C13_13  and  N14_14 
REMARK    4  A    between atoms: N14_14  and  C15_16 
REMARK    5  A    between atoms: C15_16  and  C17_18 
REMARK    6  A    between atoms: C17_18  and  C18_19 
REMARK    7  A    between atoms: C17_18  and  C20_21 
REMARK    8  A    between atoms: C18_19  and  O19_20 
REMARK    9  A    between atoms: C20_21  and  C28_27 
REMARK   10  A    between atoms: C24_23  and  C29_28 
REMARK   11  A    between atoms: C29_28  and  N30_29 
ROOT
HETATM    1  C15 FXV A 401       0.575  15.321  21.159  1.00 40.77     0.094 C 
HETATM    2  C16 FXV A 401       0.834  13.800  21.092  1.00 45.08     0.033 C 
ENDROOT
BRANCH   1   3
HETATM    3  N14 FXV A 401       1.070  15.901  19.936  1.00 42.14    -0.352 N 
HETATM    4  C13 FXV A 401       2.192  16.645  19.874  1.00 41.97     0.248 C 
HETATM    5  O33 FXV A 401       2.881  16.904  20.878  1.00 47.23    -0.268 OA
ATOM      6  H14 FXV A 401       0.546  15.740  19.075  1.00  0.00     0.163 HD
BRANCH   4   7
HETATM    7  C8  FXV A 401       2.546  17.099  18.534  1.00 41.70     0.013 A 
HETATM    8  C7  FXV A 401       3.356  18.285  18.265  1.00 39.89     0.072 A 
HETATM    9  C12 FXV A 401       3.629  18.656  16.906  1.00 37.02    -0.010 A 
HETATM   10  C11 FXV A 401       3.133  17.900  15.787  1.00 37.95    -0.029 A 
HETATM   11  C10 FXV A 401       2.342  16.736  16.066  1.00 41.02     0.012 A 
HETATM   12  C9  FXV A 401       2.054  16.345  17.408  1.00 45.36     0.014 A 
BRANCH  10  13
HETATM   13  C2  FXV A 401       3.420  18.325  14.379  1.00 38.25    -0.024 A 
HETATM   14  C1  FXV A 401       2.560  17.924  13.304  1.00 36.59     0.032 A 
HETATM   15  C6  FXV A 401       2.871  18.360  11.982  1.00 42.03     0.123 A 
HETATM   16  N1  FXV A 401       3.971  19.160  11.684  1.00 45.76    -0.247 N 
HETATM   17  C4  FXV A 401       4.802  19.552  12.705  1.00 42.09     0.123 A 
HETATM   18  C3  FXV A 401       4.557  19.154  14.060  1.00 41.91     0.032 A 
BRANCH  16  19
HETATM   19  O1  FXV A 401       4.203  19.537  10.395  1.00 49.39    -0.284 OA
ATOM     20  H1  FXV A 401       4.383  18.896   9.717  1.00  0.00     0.245 HD
ENDBRANCH  16  19
ENDBRANCH  10  13
ENDBRANCH   4   7
ENDBRANCH   1   3
BRANCH   1  21
HETATM   21  C17 FXV A 401      -0.941  15.717  21.316  1.00 42.56     0.112 C 
BRANCH  21  22
HETATM   22  C18 FXV A 401      -1.768  15.044  20.204  1.00 43.81     0.264 C 
HETATM   23  O32 FXV A 401      -1.294  14.446  19.302  1.00 48.57    -0.265 OA
BRANCH  22  24
HETATM   24  O19 FXV A 401      -3.104  15.214  20.403  1.00 45.98    -0.326 OA
HETATM   25  C34 FXV A 401      -3.738  14.899  21.645  1.00 47.93     0.213 C 
ENDBRANCH  22  24
ENDBRANCH  21  22
BRANCH  21  26
HETATM   26  C20 FXV A 401      -1.194  17.292  21.344  1.00 33.69     0.051 C 
BRANCH  26  27
HETATM   27  C28 FXV A 401      -0.848  18.058  20.057  1.00 32.34    -0.075 A 
HETATM   28  C23 FXV A 401      -1.374  17.683  18.743  1.00 30.63     0.072 A 
HETATM   29  C24 FXV A 401      -1.016  18.436  17.542  1.00 27.59    -0.030 A 
HETATM   30  C25 FXV A 401      -0.118  19.571  17.677  1.00 25.83     0.065 A 
HETATM   31  C26 FXV A 401       0.400  19.944  18.959  1.00 21.52    -0.022 A 
HETATM   32  C27 FXV A 401       0.041  19.194  20.135  1.00 29.50    -0.001 A 
BRANCH  29  33
HETATM   33  C29 FXV A 401      -1.539  18.065  16.225  1.00 23.14     0.095 C 
HETATM   34  N31 FXV A 401      -2.669  17.339  16.150  1.00 29.79    -0.386 N 
ATOM     35 2H31 FXV A 401      -3.142  17.065  17.012  1.00  0.00     0.157 HD
ATOM     36 1H31 FXV A 401      -3.035  17.081  15.234  1.00  0.00     0.157 HD
BRANCH  33  37
HETATM   37  N30 FXV A 401      -0.920  18.424  15.097  1.00 27.97    -0.386 N 
ATOM     38 2H30 FXV A 401      -0.198  19.143  15.134  1.00  0.00     0.157 HD
ATOM     39 1H30 FXV A 401      -1.155  18.000  14.200  1.00  0.00     0.157 HD
ENDBRANCH  33  37
ENDBRANCH  29  33
ENDBRANCH  26  27
ENDBRANCH  21  26
ENDBRANCH   1  21
TORSDOF 11
