REMARK  11 active torsions:
REMARK  status: ('A' for Active; 'I' for Inactive)
REMARK    1  A    between atoms: C2_2  and  C11_11 
REMARK    2  A    between atoms: N1_5  and  O1_38 
REMARK    3  A    between atoms: C8_8  and  C13_13 
REMARK       I    between atoms: C13_13  and  N14_14 
REMARK    4  A    between atoms: N14_14  and  C15_16 
REMARK    5  A    between atoms: C15_16  and  C17_18 
REMARK    6  A    between atoms: C17_18  and  C18_19 
REMARK    7  A    between atoms: C17_18  and  C20_21 
REMARK    8  A    between atoms: C18_19  and  O19_20 
REMARK    9  A    between atoms: C20_21  and  C28_27 
REMARK   10  A    between atoms: C24_23  and  C29_28 
REMARK   11  A    between atoms: C29_28  and  N30_29 
ROOT
HETATM    1  C15 FXV A 401      -0.679  14.906  17.499  1.00 40.77     0.094 C 
HETATM    2  C16 FXV A 401       0.003  13.543  17.749  1.00 45.08     0.033 C 
ENDROOT
BRANCH   1   3
HETATM    3  N14 FXV A 401       0.187  15.675  16.641  1.00 42.14    -0.352 N 
HETATM    4  C13 FXV A 401       1.153  16.491  17.107  1.00 41.97     0.248 C 
HETATM    5  O33 FXV A 401       1.360  16.657  18.324  1.00 47.23    -0.268 OA
ATOM      6  H14 FXV A 401       0.063  15.598  15.631  1.00  0.00     0.163 HD
BRANCH   4   7
HETATM    7  C8  FXV A 401       1.949  17.142  16.073  1.00 41.70     0.013 A 
HETATM    8  C7  FXV A 401       3.246  17.769  16.320  1.00 39.89     0.072 A 
HETATM    9  C12 FXV A 401       3.938  18.402  15.234  1.00 37.02    -0.010 A 
HETATM   10  C11 FXV A 401       3.403  18.444  13.900  1.00 37.95    -0.029 A 
HETATM   11  C10 FXV A 401       2.131  17.821  13.672  1.00 41.02     0.012 A 
HETATM   12  C9  FXV A 401       1.419  17.186  14.734  1.00 45.36     0.014 A 
BRANCH  10  13
HETATM   13  C2  FXV A 401       4.143  19.129  12.791  1.00 38.25    -0.024 A 
HETATM   14  C1  FXV A 401       5.451  19.674  13.012  1.00 36.59     0.032 A 
HETATM   15  C6  FXV A 401       6.118  20.309  11.922  1.00 42.03     0.123 A 
HETATM   16  N1  FXV A 401       5.559  20.424  10.652  1.00 45.76    -0.247 N 
HETATM   17  C4  FXV A 401       4.308  19.905  10.428  1.00 42.09     0.123 A 
HETATM   18  C3  FXV A 401       3.574  19.252  11.472  1.00 41.91     0.032 A 
BRANCH  16  19
HETATM   19  O1  FXV A 401       6.259  21.046   9.661  1.00 49.39    -0.284 OA
ATOM     20  H1  FXV A 401       5.901  21.137   8.786  1.00  0.00     0.245 HD
ENDBRANCH  16  19
ENDBRANCH  10  13
ENDBRANCH   4   7
ENDBRANCH   1   3
BRANCH   1  21
HETATM   21  C17 FXV A 401      -2.094  14.810  16.816  1.00 42.56     0.112 C 
BRANCH  21  22
HETATM   22  C18 FXV A 401      -1.924  14.694  15.290  1.00 43.81     0.264 C 
HETATM   23  O32 FXV A 401      -1.172  13.947  14.767  1.00 48.57    -0.265 OA
BRANCH  22  24
HETATM   24  O19 FXV A 401      -2.756  15.543  14.628  1.00 45.98    -0.326 OA
HETATM   25  C34 FXV A 401      -2.282  16.460  13.639  1.00 47.93     0.213 C 
ENDBRANCH  22  24
ENDBRANCH  21  22
BRANCH  21  26
HETATM   26  C20 FXV A 401      -3.072  16.013  17.193  1.00 33.69     0.051 C 
BRANCH  26  27
HETATM   27  C28 FXV A 401      -2.418  17.395  17.354  1.00 32.34    -0.075 A 
HETATM   28  C23 FXV A 401      -1.397  17.678  18.364  1.00 30.63     0.072 A 
HETATM   29  C24 FXV A 401      -0.803  19.008  18.487  1.00 27.59    -0.030 A 
HETATM   30  C25 FXV A 401      -1.250  20.053  17.582  1.00 25.83     0.065 A 
HETATM   31  C26 FXV A 401      -2.248  19.784  16.592  1.00 21.52    -0.022 A 
HETATM   32  C27 FXV A 401      -2.827  18.470  16.480  1.00 29.50    -0.001 A 
BRANCH  29  33
HETATM   33  C29 FXV A 401       0.219  19.296  19.496  1.00 23.14     0.095 C 
HETATM   34  N31 FXV A 401       0.921  20.440  19.409  1.00 29.79    -0.386 N 
ATOM     35 2H31 FXV A 401       0.725  21.087  18.645  1.00  0.00     0.157 HD
ATOM     36 1H31 FXV A 401       1.633  20.641  20.111  1.00  0.00     0.157 HD
BRANCH  33  37
HETATM   37  N30 FXV A 401       0.476  18.449  20.496  1.00 27.97    -0.386 N 
ATOM     38 2H30 FXV A 401       0.815  17.511  20.279  1.00  0.00     0.157 HD
ATOM     39 1H30 FXV A 401       0.339  18.714  21.471  1.00  0.00     0.157 HD
ENDBRANCH  33  37
ENDBRANCH  29  33
ENDBRANCH  26  27
ENDBRANCH  21  26
ENDBRANCH   1  21
TORSDOF 11
