REMARK  11 active torsions:
REMARK  status: ('A' for Active; 'I' for Inactive)
REMARK    1  A    between atoms: C2_2  and  C11_11 
REMARK    2  A    between atoms: N1_5  and  O1_38 
REMARK    3  A    between atoms: C8_8  and  C13_13 
REMARK       I    between atoms: C13_13  and  N14_14 
REMARK    4  A    between atoms: N14_14  and  C15_16 
REMARK    5  A    between atoms: C15_16  and  C17_18 
REMARK    6  A    between atoms: C17_18  and  C18_19 
REMARK    7  A    between atoms: C17_18  and  C20_21 
REMARK    8  A    between atoms: C18_19  and  O19_20 
REMARK    9  A    between atoms: C20_21  and  C28_27 
REMARK   10  A    between atoms: C24_23  and  C29_28 
REMARK   11  A    between atoms: C29_28  and  N30_29 
ROOT
HETATM    1  C15 FXV A 401       0.678  15.166  20.380  1.00 40.77     0.094 C 
HETATM    2  C16 FXV A 401       1.370  13.796  20.543  1.00 45.08     0.033 C 
ENDROOT
BRANCH   1   3
HETATM    3  N14 FXV A 401       1.233  15.798  19.211  1.00 42.14    -0.352 N 
HETATM    4  C13 FXV A 401       2.107  16.822  19.270  1.00 41.97     0.248 C 
HETATM    5  O33 FXV A 401       2.491  17.315  20.347  1.00 47.23    -0.268 OA
ATOM      6  H14 FXV A 401       0.951  15.454  18.292  1.00  0.00     0.163 HD
BRANCH   4   7
HETATM    7  C8  FXV A 401       2.586  17.288  17.973  1.00 41.70     0.013 A 
HETATM    8  C7  FXV A 401       3.853  17.989  17.778  1.00 39.89     0.072 A 
HETATM    9  C12 FXV A 401       4.219  18.424  16.460  1.00 37.02    -0.010 A 
HETATM   10  C11 FXV A 401       3.382  18.195  15.313  1.00 37.95    -0.029 A 
HETATM   11  C10 FXV A 401       2.143  17.502  15.519  1.00 41.02     0.012 A 
HETATM   12  C9  FXV A 401       1.753  17.060  16.819  1.00 45.36     0.014 A 
BRANCH  10  13
HETATM   13  C2  FXV A 401       3.785  18.678  13.953  1.00 38.25    -0.024 A 
HETATM   14  C1  FXV A 401       5.124  19.126  13.703  1.00 36.59     0.032 A 
HETATM   15  C6  FXV A 401       5.462  19.569  12.389  1.00 42.03     0.123 A 
HETATM   16  N1  FXV A 401       4.551  19.585  11.335  1.00 45.76    -0.247 N 
HETATM   17  C4  FXV A 401       3.266  19.158  11.562  1.00 42.09     0.123 A 
HETATM   18  C3  FXV A 401       2.850  18.699  12.855  1.00 41.91     0.032 A 
BRANCH  16  19
HETATM   19  O1  FXV A 401       4.948  20.023  10.107  1.00 49.39    -0.284 OA
ATOM     20  H1  FXV A 401       4.357  20.012   9.363  1.00  0.00     0.245 HD
ENDBRANCH  16  19
ENDBRANCH  10  13
ENDBRANCH   4   7
ENDBRANCH   1   3
BRANCH   1  21
HETATM   21  C17 FXV A 401      -0.885  15.090  20.207  1.00 42.56     0.112 C 
BRANCH  21  22
HETATM   22  C18 FXV A 401      -1.223  14.570  18.797  1.00 43.81     0.264 C 
HETATM   23  O32 FXV A 401      -0.442  14.036  18.089  1.00 48.57    -0.265 OA
BRANCH  22  24
HETATM   24  O19 FXV A 401      -2.528  14.791  18.483  1.00 45.98    -0.326 OA
HETATM   25  C34 FXV A 401      -3.076  14.448  17.207  1.00 47.93     0.213 C 
ENDBRANCH  22  24
ENDBRANCH  21  22
BRANCH  21  26
HETATM   26  C20 FXV A 401      -1.633  16.468  20.503  1.00 33.69     0.051 C 
BRANCH  26  27
HETATM   27  C28 FXV A 401      -1.321  17.629  19.546  1.00 32.34    -0.075 A 
HETATM   28  C23 FXV A 401      -1.493  17.531  18.095  1.00 30.63     0.072 A 
HETATM   29  C24 FXV A 401      -1.180  18.658  17.219  1.00 27.59    -0.030 A 
HETATM   30  C25 FXV A 401      -0.688  19.887  17.819  1.00 25.83     0.065 A 
HETATM   31  C26 FXV A 401      -0.517  19.990  19.236  1.00 21.52    -0.022 A 
HETATM   32  C27 FXV A 401      -0.828  18.873  20.090  1.00 29.50    -0.001 A 
BRANCH  29  33
HETATM   33  C29 FXV A 401      -1.350  18.565  15.767  1.00 23.14     0.095 C 
HETATM   34  N31 FXV A 401      -0.844  17.504  15.114  1.00 29.79    -0.386 N 
ATOM     35 2H31 FXV A 401      -0.355  16.782  15.643  1.00  0.00     0.157 HD
ATOM     36 1H31 FXV A 401      -0.963  17.439  14.104  1.00  0.00     0.157 HD
BRANCH  33  37
HETATM   37  N30 FXV A 401      -1.991  19.511  15.074  1.00 27.97    -0.386 N 
ATOM     38 2H30 FXV A 401      -2.868  19.884  15.436  1.00  0.00     0.157 HD
ATOM     39 1H30 FXV A 401      -1.626  19.866  14.190  1.00  0.00     0.157 HD
ENDBRANCH  33  37
ENDBRANCH  29  33
ENDBRANCH  26  27
ENDBRANCH  21  26
ENDBRANCH   1  21
TORSDOF 11
