REMARK  11 active torsions:
REMARK  status: ('A' for Active; 'I' for Inactive)
REMARK    1  A    between atoms: C2_2  and  C11_11 
REMARK    2  A    between atoms: N1_5  and  O1_38 
REMARK    3  A    between atoms: C8_8  and  C13_13 
REMARK       I    between atoms: C13_13  and  N14_14 
REMARK    4  A    between atoms: N14_14  and  C15_16 
REMARK    5  A    between atoms: C15_16  and  C17_18 
REMARK    6  A    between atoms: C17_18  and  C18_19 
REMARK    7  A    between atoms: C17_18  and  C20_21 
REMARK    8  A    between atoms: C18_19  and  O19_20 
REMARK    9  A    between atoms: C20_21  and  C28_27 
REMARK   10  A    between atoms: C24_23  and  C29_28 
REMARK   11  A    between atoms: C29_28  and  N30_29 
ROOT
HETATM    1  C15 FXV A 401       1.038  14.970  21.356  1.00 40.77     0.094 C 
HETATM    2  C16 FXV A 401       1.635  13.547  21.412  1.00 45.08     0.033 C 
ENDROOT
BRANCH   1   3
HETATM    3  N14 FXV A 401       1.448  15.566  20.109  1.00 42.14    -0.352 N 
HETATM    4  C13 FXV A 401       2.432  16.482  20.018  1.00 41.97     0.248 C 
HETATM    5  O33 FXV A 401       3.054  16.900  21.012  1.00 47.23    -0.268 OA
ATOM      6  H14 FXV A 401       0.971  15.280  19.254  1.00  0.00     0.163 HD
BRANCH   4   7
HETATM    7  C8  FXV A 401       2.725  16.925  18.659  1.00 41.70     0.013 A 
HETATM    8  C7  FXV A 401       3.941  17.642  18.282  1.00 39.89     0.072 A 
HETATM    9  C12 FXV A 401       4.121  18.052  16.919  1.00 37.02    -0.010 A 
HETATM   10  C11 FXV A 401       3.145  17.781  15.899  1.00 37.95    -0.029 A 
HETATM   11  C10 FXV A 401       1.958  17.071  16.282  1.00 41.02     0.012 A 
HETATM   12  C9  FXV A 401       1.752  16.654  17.631  1.00 45.36     0.014 A 
BRANCH  10  13
HETATM   13  C2  FXV A 401       3.354  18.238  14.486  1.00 38.25    -0.024 A 
HETATM   14  C1  FXV A 401       4.422  19.138  14.160  1.00 36.59     0.032 A 
HETATM   15  C6  FXV A 401       4.586  19.537  12.800  1.00 42.03     0.123 A 
HETATM   16  N1  FXV A 401       3.758  19.092  11.772  1.00 45.76    -0.247 N 
HETATM   17  C4  FXV A 401       2.733  18.229  12.072  1.00 42.09     0.123 A 
HETATM   18  C3  FXV A 401       2.504  17.782  13.414  1.00 41.91     0.032 A 
BRANCH  16  19
HETATM   19  O1  FXV A 401       3.977  19.519  10.496  1.00 49.39    -0.284 OA
ATOM     20  H1  FXV A 401       4.228  18.914   9.809  1.00  0.00     0.245 HD
ENDBRANCH  16  19
ENDBRANCH  10  13
ENDBRANCH   4   7
ENDBRANCH   1   3
BRANCH   1  21
HETATM   21  C17 FXV A 401      -0.534  15.020  21.435  1.00 42.56     0.112 C 
BRANCH  21  22
HETATM   22  C18 FXV A 401      -1.128  14.813  20.030  1.00 43.81     0.264 C 
HETATM   23  O32 FXV A 401      -0.520  14.372  19.117  1.00 48.57    -0.265 OA
BRANCH  22  24
HETATM   24  O19 FXV A 401      -2.435  15.187  19.980  1.00 45.98    -0.326 OA
HETATM   25  C34 FXV A 401      -3.056  15.638  18.773  1.00 47.93     0.213 C 
ENDBRANCH  22  24
ENDBRANCH  21  22
BRANCH  21  26
HETATM   26  C20 FXV A 401      -1.101  16.352  22.106  1.00 33.69     0.051 C 
BRANCH  26  27
HETATM   27  C28 FXV A 401      -1.231  17.574  21.184  1.00 32.34    -0.075 A 
HETATM   28  C23 FXV A 401      -0.110  18.106  20.406  1.00 30.63     0.072 A 
HETATM   29  C24 FXV A 401      -0.275  19.275  19.544  1.00 27.59    -0.030 A 
HETATM   30  C25 FXV A 401      -1.582  19.907  19.474  1.00 25.83     0.065 A 
HETATM   31  C26 FXV A 401      -2.682  19.393  20.232  1.00 21.52    -0.022 A 
HETATM   32  C27 FXV A 401      -2.508  18.241  21.079  1.00 29.50    -0.001 A 
BRANCH  29  33
HETATM   33  C29 FXV A 401       0.844  19.810  18.764  1.00 23.14     0.095 C 
HETATM   34  N31 FXV A 401       1.943  20.242  19.406  1.00 29.79    -0.386 N 
ATOM     35 2H31 FXV A 401       1.979  20.185  20.424  1.00  0.00     0.157 HD
ATOM     36 1H31 FXV A 401       2.722  20.615  18.864  1.00  0.00     0.157 HD
BRANCH  33  37
HETATM   37  N30 FXV A 401       0.797  19.886  17.431  1.00 27.97    -0.386 N 
ATOM     38 2H30 FXV A 401       1.579  19.524  16.885  1.00  0.00     0.157 HD
ATOM     39 1H30 FXV A 401       0.000  20.298  16.945  1.00  0.00     0.157 HD
ENDBRANCH  33  37
ENDBRANCH  29  33
ENDBRANCH  26  27
ENDBRANCH  21  26
ENDBRANCH   1  21
TORSDOF 11
