REMARK  11 active torsions:
REMARK  status: ('A' for Active; 'I' for Inactive)
REMARK    1  A    between atoms: C2_2  and  C11_11 
REMARK    2  A    between atoms: N1_5  and  O1_38 
REMARK    3  A    between atoms: C8_8  and  C13_13 
REMARK       I    between atoms: C13_13  and  N14_14 
REMARK    4  A    between atoms: N14_14  and  C15_16 
REMARK    5  A    between atoms: C15_16  and  C17_18 
REMARK    6  A    between atoms: C17_18  and  C18_19 
REMARK    7  A    between atoms: C17_18  and  C20_21 
REMARK    8  A    between atoms: C18_19  and  O19_20 
REMARK    9  A    between atoms: C20_21  and  C28_27 
REMARK   10  A    between atoms: C24_23  and  C29_28 
REMARK   11  A    between atoms: C29_28  and  N30_29 
ROOT
HETATM    1  C15 FXV A 401      -1.924  16.469  17.738  1.00 40.77     0.094 C 
HETATM    2  C16 FXV A 401      -2.772  15.498  16.888  1.00 45.08     0.033 C 
ENDROOT
BRANCH   1   3
HETATM    3  N14 FXV A 401      -0.883  16.993  16.891  1.00 42.14    -0.352 N 
HETATM    4  C13 FXV A 401       0.347  16.450  16.811  1.00 41.97     0.248 C 
HETATM    5  O33 FXV A 401       0.687  15.456  17.481  1.00 47.23    -0.268 OA
ATOM      6  H14 FXV A 401      -1.087  17.816  16.323  1.00  0.00     0.163 HD
BRANCH   4   7
HETATM    7  C8  FXV A 401       1.240  17.103  15.859  1.00 41.70     0.013 A 
HETATM    8  C7  FXV A 401       2.212  18.129  16.229  1.00 39.89     0.072 A 
HETATM    9  C12 FXV A 401       3.028  18.723  15.208  1.00 37.02    -0.010 A 
HETATM   10  C11 FXV A 401       2.927  18.345  13.825  1.00 37.95    -0.029 A 
HETATM   11  C10 FXV A 401       1.971  17.334  13.477  1.00 41.02     0.012 A 
HETATM   12  C9  FXV A 401       1.145  16.727  14.471  1.00 45.36     0.014 A 
BRANCH  10  13
HETATM   13  C2  FXV A 401       3.781  18.998  12.780  1.00 38.25    -0.024 A 
HETATM   14  C1  FXV A 401       5.143  19.349  13.063  1.00 36.59     0.032 A 
HETATM   15  C6  FXV A 401       5.918  19.961  12.034  1.00 42.03     0.123 A 
HETATM   16  N1  FXV A 401       5.416  20.233  10.764  1.00 45.76    -0.247 N 
HETATM   17  C4  FXV A 401       4.114  19.901  10.480  1.00 42.09     0.123 A 
HETATM   18  C3  FXV A 401       3.271  19.283  11.462  1.00 41.91     0.032 A 
BRANCH  16  19
HETATM   19  O1  FXV A 401       6.218  20.820   9.832  1.00 49.39    -0.284 OA
ATOM     20  H1  FXV A 401       5.998  20.804   8.908  1.00  0.00     0.245 HD
ENDBRANCH  16  19
ENDBRANCH  10  13
ENDBRANCH   4   7
ENDBRANCH   1   3
BRANCH   1  21
HETATM   21  C17 FXV A 401      -2.729  17.680  18.340  1.00 42.56     0.112 C 
BRANCH  21  22
HETATM   22  C18 FXV A 401      -2.929  18.757  17.257  1.00 43.81     0.264 C 
HETATM   23  O32 FXV A 401      -2.053  19.418  16.819  1.00 48.57    -0.265 OA
BRANCH  22  24
HETATM   24  O19 FXV A 401      -4.229  18.836  16.865  1.00 45.98    -0.326 OA
HETATM   25  C34 FXV A 401      -5.136  19.795  17.415  1.00 47.93     0.213 C 
ENDBRANCH  22  24
ENDBRANCH  21  22
BRANCH  21  26
HETATM   26  C20 FXV A 401      -2.067  18.303  19.651  1.00 33.69     0.051 C 
BRANCH  26  27
HETATM   27  C28 FXV A 401      -0.550  18.539  19.600  1.00 32.34    -0.075 A 
HETATM   28  C23 FXV A 401       0.428  17.470  19.815  1.00 30.63     0.072 A 
HETATM   29  C24 FXV A 401       1.864  17.737  19.762  1.00 27.59    -0.030 A 
HETATM   30  C25 FXV A 401       2.308  19.094  19.492  1.00 25.83     0.065 A 
HETATM   31  C26 FXV A 401       1.358  20.144  19.281  1.00 21.52    -0.022 A 
HETATM   32  C27 FXV A 401      -0.055  19.870  19.336  1.00 29.50    -0.001 A 
BRANCH  29  33
HETATM   33  C29 FXV A 401       2.846  16.671  19.976  1.00 23.14     0.095 C 
HETATM   34  N31 FXV A 401       2.522  15.407  19.652  1.00 29.79    -0.386 N 
ATOM     35 2H31 FXV A 401       1.601  15.215  19.259  1.00  0.00     0.157 HD
ATOM     36 1H31 FXV A 401       3.205  14.665  19.801  1.00  0.00     0.157 HD
BRANCH  33  37
HETATM   37  N30 FXV A 401       4.053  16.922  20.491  1.00 27.97    -0.386 N 
ATOM     38 2H30 FXV A 401       4.711  17.493  19.960  1.00  0.00     0.157 HD
ATOM     39 1H30 FXV A 401       4.335  16.555  21.399  1.00  0.00     0.157 HD
ENDBRANCH  33  37
ENDBRANCH  29  33
ENDBRANCH  26  27
ENDBRANCH  21  26
ENDBRANCH   1  21
TORSDOF 11
