REMARK  11 active torsions:
REMARK  status: ('A' for Active; 'I' for Inactive)
REMARK    1  A    between atoms: C2_2  and  C11_11 
REMARK    2  A    between atoms: N1_5  and  O1_38 
REMARK    3  A    between atoms: C8_8  and  C13_13 
REMARK       I    between atoms: C13_13  and  N14_14 
REMARK    4  A    between atoms: N14_14  and  C15_16 
REMARK    5  A    between atoms: C15_16  and  C17_18 
REMARK    6  A    between atoms: C17_18  and  C18_19 
REMARK    7  A    between atoms: C17_18  and  C20_21 
REMARK    8  A    between atoms: C18_19  and  O19_20 
REMARK    9  A    between atoms: C20_21  and  C28_27 
REMARK   10  A    between atoms: C24_23  and  C29_28 
REMARK   11  A    between atoms: C29_28  and  N30_29 
ROOT
HETATM    1  C15 FXV A 401      -3.041  16.004  16.243  1.00 40.77     0.094 C 
HETATM    2  C16 FXV A 401      -3.260  14.619  15.596  1.00 45.08     0.033 C 
ENDROOT
BRANCH   1   3
HETATM    3  N14 FXV A 401      -1.853  16.574  15.660  1.00 42.14    -0.352 N 
HETATM    4  C13 FXV A 401      -0.635  16.481  16.227  1.00 41.97     0.248 C 
HETATM    5  O33 FXV A 401      -0.443  15.906  17.315  1.00 47.23    -0.268 OA
ATOM      6  H14 FXV A 401      -1.939  17.072  14.773  1.00  0.00     0.163 HD
BRANCH   4   7
HETATM    7  C8  FXV A 401       0.444  17.085  15.452  1.00 41.70     0.013 A 
HETATM    8  C7  FXV A 401       1.615  17.723  16.049  1.00 39.89     0.072 A 
HETATM    9  C12 FXV A 401       2.609  18.306  15.194  1.00 37.02    -0.010 A 
HETATM   10  C11 FXV A 401       2.499  18.286  13.761  1.00 37.95    -0.029 A 
HETATM   11  C10 FXV A 401       1.347  17.652  13.189  1.00 41.02     0.012 A 
HETATM   12  C9  FXV A 401       0.341  17.066  14.015  1.00 45.36     0.014 A 
BRANCH  10  13
HETATM   13  C2  FXV A 401       3.546  18.920  12.896  1.00 38.25    -0.024 A 
HETATM   14  C1  FXV A 401       4.874  19.135  13.393  1.00 36.59     0.032 A 
HETATM   15  C6  FXV A 401       5.838  19.734  12.528  1.00 42.03     0.123 A 
HETATM   16  N1  FXV A 401       5.552  20.120  11.221  1.00 45.76    -0.247 N 
HETATM   17  C4  FXV A 401       4.284  19.918  10.733  1.00 42.09     0.123 A 
HETATM   18  C3  FXV A 401       3.260  19.322  11.540  1.00 41.91     0.032 A 
BRANCH  16  19
HETATM   19  O1  FXV A 401       6.526  20.687  10.456  1.00 49.39    -0.284 OA
ATOM     20  H1  FXV A 401       6.501  20.639   9.508  1.00  0.00     0.245 HD
ENDBRANCH  16  19
ENDBRANCH  10  13
ENDBRANCH   4   7
ENDBRANCH   1   3
BRANCH   1  21
HETATM   21  C17 FXV A 401      -4.229  17.015  16.035  1.00 42.56     0.112 C 
BRANCH  21  22
HETATM   22  C18 FXV A 401      -4.362  17.356  14.539  1.00 43.81     0.264 C 
HETATM   23  O32 FXV A 401      -5.059  16.764  13.790  1.00 48.57    -0.265 OA
BRANCH  22  24
HETATM   24  O19 FXV A 401      -3.592  18.424  14.200  1.00 45.98    -0.326 OA
HETATM   25  C34 FXV A 401      -4.152  19.648  13.716  1.00 47.93     0.213 C 
ENDBRANCH  22  24
ENDBRANCH  21  22
BRANCH  21  26
HETATM   26  C20 FXV A 401      -4.106  18.341  16.915  1.00 33.69     0.051 C 
BRANCH  26  27
HETATM   27  C28 FXV A 401      -2.679  18.808  17.242  1.00 32.34    -0.075 A 
HETATM   28  C23 FXV A 401      -1.950  18.360  18.430  1.00 30.63     0.072 A 
HETATM   29  C24 FXV A 401      -0.594  18.833  18.708  1.00 27.59    -0.030 A 
HETATM   30  C25 FXV A 401       0.020  19.765  17.777  1.00 25.83     0.065 A 
HETATM   31  C26 FXV A 401      -0.688  20.207  16.614  1.00 21.52    -0.022 A 
HETATM   32  C27 FXV A 401      -2.023  19.736  16.351  1.00 29.50    -0.001 A 
BRANCH  29  33
HETATM   33  C29 FXV A 401       0.140  18.387  19.895  1.00 23.14     0.095 C 
HETATM   34  N31 FXV A 401       0.721  17.174  19.889  1.00 29.79    -0.386 N 
ATOM     35 2H31 FXV A 401       0.642  16.589  19.057  1.00  0.00     0.157 HD
ATOM     36 1H31 FXV A 401       1.232  16.863  20.715  1.00  0.00     0.157 HD
BRANCH  33  37
HETATM   37  N30 FXV A 401       0.243  19.153  20.985  1.00 27.97    -0.386 N 
ATOM     38 2H30 FXV A 401       0.097  20.159  20.901  1.00  0.00     0.157 HD
ATOM     39 1H30 FXV A 401       0.467  18.757  21.898  1.00  0.00     0.157 HD
ENDBRANCH  33  37
ENDBRANCH  29  33
ENDBRANCH  26  27
ENDBRANCH  21  26
ENDBRANCH   1  21
TORSDOF 11
