REMARK  11 active torsions:
REMARK  status: ('A' for Active; 'I' for Inactive)
REMARK    1  A    between atoms: C2_2  and  C11_11 
REMARK    2  A    between atoms: N1_5  and  O1_38 
REMARK    3  A    between atoms: C8_8  and  C13_13 
REMARK       I    between atoms: C13_13  and  N14_14 
REMARK    4  A    between atoms: N14_14  and  C15_16 
REMARK    5  A    between atoms: C15_16  and  C17_18 
REMARK    6  A    between atoms: C17_18  and  C18_19 
REMARK    7  A    between atoms: C17_18  and  C20_21 
REMARK    8  A    between atoms: C18_19  and  O19_20 
REMARK    9  A    between atoms: C20_21  and  C28_27 
REMARK   10  A    between atoms: C24_23  and  C29_28 
REMARK   11  A    between atoms: C29_28  and  N30_29 
ROOT
HETATM    1  C15 FXV A 401       1.012  15.082  20.595  1.00 40.77     0.094 C 
HETATM    2  C16 FXV A 401       0.982  13.561  20.332  1.00 45.08     0.033 C 
ENDROOT
BRANCH   1   3
HETATM    3  N14 FXV A 401       1.515  15.719  19.404  1.00 42.14    -0.352 N 
HETATM    4  C13 FXV A 401       2.409  16.727  19.427  1.00 41.97     0.248 C 
HETATM    5  O33 FXV A 401       2.859  17.200  20.488  1.00 47.23    -0.268 OA
ATOM      6  H14 FXV A 401       1.177  15.391  18.499  1.00  0.00     0.163 HD
BRANCH   4   7
HETATM    7  C8  FXV A 401       2.825  17.201  18.112  1.00 41.70     0.013 A 
HETATM    8  C7  FXV A 401       4.062  17.939  17.867  1.00 39.89     0.072 A 
HETATM    9  C12 FXV A 401       4.366  18.379  16.535  1.00 37.02    -0.010 A 
HETATM   10  C11 FXV A 401       3.494  18.118  15.421  1.00 37.95    -0.029 A 
HETATM   11  C10 FXV A 401       2.286  17.389  15.676  1.00 41.02     0.012 A 
HETATM   12  C9  FXV A 401       1.957  16.942  16.990  1.00 45.36     0.014 A 
BRANCH  10  13
HETATM   13  C2  FXV A 401       3.832  18.607  14.045  1.00 38.25    -0.024 A 
HETATM   14  C1  FXV A 401       5.127  19.153  13.760  1.00 36.59     0.032 A 
HETATM   15  C6  FXV A 401       5.403  19.596  12.432  1.00 42.03     0.123 A 
HETATM   16  N1  FXV A 401       4.474  19.523  11.397  1.00 45.76    -0.247 N 
HETATM   17  C4  FXV A 401       3.231  19.001  11.657  1.00 42.09     0.123 A 
HETATM   18  C3  FXV A 401       2.878  18.534  12.966  1.00 41.91     0.032 A 
BRANCH  16  19
HETATM   19  O1  FXV A 401       4.812  19.968  10.154  1.00 49.39    -0.284 OA
ATOM     20  H1  FXV A 401       4.197  19.929   9.431  1.00  0.00     0.245 HD
ENDBRANCH  16  19
ENDBRANCH  10  13
ENDBRANCH   4   7
ENDBRANCH   1   3
BRANCH   1  21
HETATM   21  C17 FXV A 401      -0.389  15.712  20.940  1.00 42.56     0.112 C 
BRANCH  21  22
HETATM   22  C18 FXV A 401      -1.399  15.360  19.832  1.00 43.81     0.264 C 
HETATM   23  O32 FXV A 401      -1.094  15.116  18.717  1.00 48.57    -0.265 OA
BRANCH  22  24
HETATM   24  O19 FXV A 401      -2.675  15.353  20.304  1.00 45.98    -0.326 OA
HETATM   25  C34 FXV A 401      -3.690  16.212  19.778  1.00 47.93     0.213 C 
ENDBRANCH  22  24
ENDBRANCH  21  22
BRANCH  21  26
HETATM   26  C20 FXV A 401      -0.341  17.287  21.192  1.00 33.69     0.051 C 
BRANCH  26  27
HETATM   27  C28 FXV A 401      -0.249  18.172  19.939  1.00 32.34    -0.075 A 
HETATM   28  C23 FXV A 401      -0.844  17.797  18.655  1.00 30.63     0.072 A 
HETATM   29  C24 FXV A 401      -0.730  18.666  17.486  1.00 27.59    -0.030 A 
HETATM   30  C25 FXV A 401      -0.006  19.919  17.621  1.00 25.83     0.065 A 
HETATM   31  C26 FXV A 401       0.579  20.293  18.873  1.00 21.52    -0.022 A 
HETATM   32  C27 FXV A 401       0.460  19.428  20.019  1.00 29.50    -0.001 A 
BRANCH  29  33
HETATM   33  C29 FXV A 401      -1.324  18.296  16.199  1.00 23.14     0.095 C 
HETATM   34  N31 FXV A 401      -1.553  16.997  15.933  1.00 29.79    -0.386 N 
ATOM     35 2H31 FXV A 401      -1.312  16.296  16.634  1.00  0.00     0.157 HD
ATOM     36 1H31 FXV A 401      -1.967  16.739  15.037  1.00  0.00     0.157 HD
BRANCH  33  37
HETATM   37  N30 FXV A 401      -1.639  19.214  15.281  1.00 27.97    -0.386 N 
ATOM     38 2H30 FXV A 401      -2.593  19.250  14.921  1.00  0.00     0.157 HD
ATOM     39 1H30 FXV A 401      -0.950  19.877  14.929  1.00  0.00     0.157 HD
ENDBRANCH  33  37
ENDBRANCH  29  33
ENDBRANCH  26  27
ENDBRANCH  21  26
ENDBRANCH   1  21
TORSDOF 11
