REMARK  11 active torsions:
REMARK  status: ('A' for Active; 'I' for Inactive)
REMARK    1  A    between atoms: C2_2  and  C11_11 
REMARK    2  A    between atoms: N1_5  and  O1_38 
REMARK    3  A    between atoms: C8_8  and  C13_13 
REMARK       I    between atoms: C13_13  and  N14_14 
REMARK    4  A    between atoms: N14_14  and  C15_16 
REMARK    5  A    between atoms: C15_16  and  C17_18 
REMARK    6  A    between atoms: C17_18  and  C18_19 
REMARK    7  A    between atoms: C17_18  and  C20_21 
REMARK    8  A    between atoms: C18_19  and  O19_20 
REMARK    9  A    between atoms: C20_21  and  C28_27 
REMARK   10  A    between atoms: C24_23  and  C29_28 
REMARK   11  A    between atoms: C29_28  and  N30_29 
ROOT
HETATM    1  C15 FXV A 401      -1.741  16.505  17.933  1.00 40.77     0.094 C 
HETATM    2  C16 FXV A 401      -2.865  15.913  17.056  1.00 45.08     0.033 C 
ENDROOT
BRANCH   1   3
HETATM    3  N14 FXV A 401      -0.716  17.001  17.051  1.00 42.14    -0.352 N 
HETATM    4  C13 FXV A 401       0.510  16.449  16.959  1.00 41.97     0.248 C 
HETATM    5  O33 FXV A 401       0.858  15.472  17.647  1.00 47.23    -0.268 OA
ATOM      6  H14 FXV A 401      -0.928  17.811  16.466  1.00  0.00     0.163 HD
BRANCH   4   7
HETATM    7  C8  FXV A 401       1.385  17.072  15.972  1.00 41.70     0.013 A 
HETATM    8  C7  FXV A 401       2.747  17.516  16.258  1.00 39.89     0.072 A 
HETATM    9  C12 FXV A 401       3.516  18.137  15.218  1.00 37.02    -0.010 A 
HETATM   10  C11 FXV A 401       2.996  18.342  13.893  1.00 37.95    -0.029 A 
HETATM   11  C10 FXV A 401       1.659  17.898  13.625  1.00 41.02     0.012 A 
HETATM   12  C9  FXV A 401       0.870  17.278  14.641  1.00 45.36     0.014 A 
BRANCH  10  13
HETATM   13  C2  FXV A 401       3.819  19.011  12.834  1.00 38.25    -0.024 A 
HETATM   14  C1  FXV A 401       3.277  19.248  11.527  1.00 36.59     0.032 A 
HETATM   15  C6  FXV A 401       4.096  19.895  10.555  1.00 42.03     0.123 A 
HETATM   16  N1  FXV A 401       5.400  20.311  10.815  1.00 45.76    -0.247 N 
HETATM   17  C4  FXV A 401       5.930  20.091  12.063  1.00 42.09     0.123 A 
HETATM   18  C3  FXV A 401       5.169  19.446  13.093  1.00 41.91     0.032 A 
BRANCH  16  19
HETATM   19  O1  FXV A 401       6.122  20.923   9.835  1.00 49.39    -0.284 OA
ATOM     20  H1  FXV A 401       5.931  20.777   8.916  1.00  0.00     0.245 HD
ENDBRANCH  16  19
ENDBRANCH  10  13
ENDBRANCH   4   7
ENDBRANCH   1   3
BRANCH   1  21
HETATM   21  C17 FXV A 401      -2.200  17.683  18.871  1.00 42.56     0.112 C 
BRANCH  21  22
HETATM   22  C18 FXV A 401      -2.378  18.967  18.039  1.00 43.81     0.264 C 
HETATM   23  O32 FXV A 401      -1.929  19.115  16.955  1.00 48.57    -0.265 OA
BRANCH  22  24
HETATM   24  O19 FXV A 401      -3.123  19.892  18.701  1.00 45.98    -0.326 OA
HETATM   25  C34 FXV A 401      -2.667  21.230  18.915  1.00 47.93     0.213 C 
ENDBRANCH  22  24
ENDBRANCH  21  22
BRANCH  21  26
HETATM   26  C20 FXV A 401      -1.226  17.935  20.110  1.00 33.69     0.051 C 
BRANCH  26  27
HETATM   27  C28 FXV A 401       0.246  18.221  19.769  1.00 32.34    -0.075 A 
HETATM   28  C23 FXV A 401       1.326  17.274  20.053  1.00 30.63     0.072 A 
HETATM   29  C24 FXV A 401       2.713  17.588  19.717  1.00 27.59    -0.030 A 
HETATM   30  C25 FXV A 401       3.004  18.868  19.094  1.00 25.83     0.065 A 
HETATM   31  C26 FXV A 401       1.953  19.798  18.813  1.00 21.52    -0.022 A 
HETATM   32  C27 FXV A 401       0.590  19.480  19.149  1.00 29.50    -0.001 A 
BRANCH  29  33
HETATM   33  C29 FXV A 401       3.798  16.644  19.999  1.00 23.14     0.095 C 
HETATM   34  N31 FXV A 401       5.009  16.855  19.454  1.00 29.79    -0.386 N 
ATOM     35 2H31 FXV A 401       5.150  17.670  18.858  1.00  0.00     0.157 HD
ATOM     36 1H31 FXV A 401       5.764  16.198  19.650  1.00  0.00     0.157 HD
BRANCH  33  37
HETATM   37  N30 FXV A 401       3.613  15.575  20.780  1.00 27.97    -0.386 N 
ATOM     38 2H30 FXV A 401       3.090  15.680  21.650  1.00  0.00     0.157 HD
ATOM     39 1H30 FXV A 401       3.983  14.659  20.530  1.00  0.00     0.157 HD
ENDBRANCH  33  37
ENDBRANCH  29  33
ENDBRANCH  26  27
ENDBRANCH  21  26
ENDBRANCH   1  21
TORSDOF 11
