REMARK  11 active torsions:
REMARK  status: ('A' for Active; 'I' for Inactive)
REMARK    1  A    between atoms: C2_2  and  C11_11 
REMARK    2  A    between atoms: N1_5  and  O1_38 
REMARK    3  A    between atoms: C8_8  and  C13_13 
REMARK       I    between atoms: C13_13  and  N14_14 
REMARK    4  A    between atoms: N14_14  and  C15_16 
REMARK    5  A    between atoms: C15_16  and  C17_18 
REMARK    6  A    between atoms: C17_18  and  C18_19 
REMARK    7  A    between atoms: C17_18  and  C20_21 
REMARK    8  A    between atoms: C18_19  and  O19_20 
REMARK    9  A    between atoms: C20_21  and  C28_27 
REMARK   10  A    between atoms: C24_23  and  C29_28 
REMARK   11  A    between atoms: C29_28  and  N30_29 
ROOT
HETATM    1  C15 FXV A 401       4.484   6.899  23.392  1.00 40.77     0.094 C 
HETATM    2  C16 FXV A 401       3.806   7.874  22.405  1.00 45.08     0.033 C 
ENDROOT
BRANCH   1   3
HETATM    3  N14 FXV A 401       5.099   5.852  22.616  1.00 42.14    -0.352 N 
HETATM    4  C13 FXV A 401       4.622   4.593  22.566  1.00 41.97     0.248 C 
HETATM    5  O33 FXV A 401       3.616   4.231  23.205  1.00 47.23    -0.268 OA
ATOM      6  H14 FXV A 401       5.937   6.075  22.078  1.00  0.00     0.163 HD
BRANCH   4   7
HETATM    7  C8  FXV A 401       5.363   3.697  21.685  1.00 41.70     0.013 A 
HETATM    8  C7  FXV A 401       6.740   3.933  21.257  1.00 39.89     0.072 A 
HETATM    9  C12 FXV A 401       7.370   2.997  20.370  1.00 37.02    -0.010 A 
HETATM   10  C11 FXV A 401       6.695   1.825  19.882  1.00 37.95    -0.029 A 
HETATM   11  C10 FXV A 401       5.345   1.604  20.314  1.00 41.02     0.012 A 
HETATM   12  C9  FXV A 401       4.693   2.519  21.194  1.00 45.36     0.014 A 
BRANCH  10  13
HETATM   13  C2  FXV A 401       7.375   0.876  18.942  1.00 38.25    -0.024 A 
HETATM   14  C1  FXV A 401       6.643   0.247  17.881  1.00 36.59     0.032 A 
HETATM   15  C6  FXV A 401       7.337  -0.642  17.007  1.00 42.03     0.123 A 
HETATM   16  N1  FXV A 401       8.694  -0.928  17.134  1.00 45.76    -0.247 N 
HETATM   17  C4  FXV A 401       9.406  -0.331  18.145  1.00 42.09     0.123 A 
HETATM   18  C3  FXV A 401       8.780   0.574  19.064  1.00 41.91     0.032 A 
BRANCH  16  19
HETATM   19  O1  FXV A 401       9.287  -1.789  16.260  1.00 49.39    -0.284 OA
ATOM     20  H1  FXV A 401       8.794  -2.202  15.561  1.00  0.00     0.245 HD
ENDBRANCH  16  19
ENDBRANCH  10  13
ENDBRANCH   4   7
ENDBRANCH   1   3
BRANCH   1  21
HETATM   21  C17 FXV A 401       5.589   7.556  24.301  1.00 42.56     0.112 C 
BRANCH  21  22
HETATM   22  C18 FXV A 401       4.964   8.689  25.136  1.00 43.81     0.264 C 
HETATM   23  O32 FXV A 401       5.390   9.791  25.172  1.00 48.57    -0.265 OA
BRANCH  22  24
HETATM   24  O19 FXV A 401       3.860   8.264  25.808  1.00 45.98    -0.326 OA
HETATM   25  C34 FXV A 401       3.095   9.132  26.648  1.00 47.93     0.213 C 
ENDBRANCH  22  24
ENDBRANCH  21  22
BRANCH  21  26
HETATM   26  C20 FXV A 401       6.861   8.077  23.491  1.00 33.69     0.051 C 
BRANCH  26  27
HETATM   27  C28 FXV A 401       8.148   8.281  24.306  1.00 32.34    -0.075 A 
HETATM   28  C23 FXV A 401       8.484   7.469  25.477  1.00 30.63     0.072 A 
HETATM   29  C24 FXV A 401       9.717   7.699  26.228  1.00 27.59    -0.030 A 
HETATM   30  C25 FXV A 401      10.609   8.759  25.789  1.00 25.83     0.065 A 
HETATM   31  C26 FXV A 401      10.287   9.557  24.645  1.00 21.52    -0.022 A 
HETATM   32  C27 FXV A 401       9.069   9.322  23.913  1.00 29.50    -0.001 A 
BRANCH  29  33
HETATM   33  C29 FXV A 401      10.058   6.889  27.400  1.00 23.14     0.095 C 
HETATM   34  N31 FXV A 401       9.074   6.275  28.081  1.00 29.79    -0.386 N 
ATOM     35 2H31 FXV A 401       8.110   6.382  27.766  1.00  0.00     0.157 HD
ATOM     36 1H31 FXV A 401       9.311   5.711  28.897  1.00  0.00     0.157 HD
BRANCH  33  37
HETATM   37  N30 FXV A 401      11.321   6.749  27.813  1.00 27.97    -0.386 N 
ATOM     38 2H30 FXV A 401      12.067   7.215  27.297  1.00  0.00     0.157 HD
ATOM     39 1H30 FXV A 401      11.558   6.185  28.629  1.00  0.00     0.157 HD
ENDBRANCH  33  37
ENDBRANCH  29  33
ENDBRANCH  26  27
ENDBRANCH  21  26
ENDBRANCH   1  21
TORSDOF 11
