4PP.pdb
  rDOCK(R)          3D
libRbt.so/2013.1/901 2013/11/27
 34 36  0  0  0  0  0  0  0  0999 V2000
   10.5920    9.7828   23.9000 C   0  0  0  0  0  0
   11.4383   10.5823   24.3236 O   0  0  0  0  0  0
   10.0346    9.9602   22.6626 O   0  0  0  0  0  0
   14.8616    7.4710   26.3132 N   0  0  0  0  0  0
   14.4517    7.9639   27.5676 C   0  0  0  0  0  0
   13.1975    7.5854   28.0897 C   0  0  0  0  0  0
   12.3563    6.7198   27.3606 C   0  0  0  0  0  0
   12.7758    6.2230   26.0945 C   0  0  0  0  0  0
   14.0240    6.6009   25.5794 C   0  0  0  0  0  0
   11.0425    6.3506   27.9509 N   0  0  0  0  0  0
   10.1870    8.5839   24.7810 C   0  0  0  0  0  0
    9.9975    9.0132   26.2381 C   0  0  0  0  0  0
    9.3711    7.8376   26.9817 C   0  0  0  0  0  0
   10.1892    7.5261   28.2299 C   0  0  0  0  0  0
    0.4239    6.5474   24.7672 N   0  0  0  0  0  0
    1.3145    6.9115   22.6939 N   0  0  0  0  0  0
    1.3822    7.0392   24.0039 C   0  0  0  0  0  0
    6.5769    6.7155   23.1328 C   0  0  0  0  0  0
    7.8628    6.3570   22.6429 C   0  0  0  0  0  0
    9.0226    6.9682   23.1859 C   0  0  0  0  0  0
    8.9072    7.9426   24.2202 C   0  0  0  0  0  0
    7.6140    8.3097   24.7170 C   0  0  0  0  0  0
    6.4441    7.6957   24.1741 C   0  0  0  0  0  0
    3.5665    9.3843   26.2091 C   0  0  0  0  0  0
    4.8728    9.0596   25.7397 C   0  0  0  0  0  0
    5.0369    8.0790   24.7097 C   0  0  0  0  0  0
    3.8931    7.4381   24.1655 C   0  0  0  0  0  0
    2.5929    7.7594   24.6272 C   0  0  0  0  0  0
    2.4252    8.7329   25.6518 C   0  0  0  0  0  0
   10.4442   10.5299   22.0415 H   0  0  0  0  0  0
   10.7698    5.4230   28.1363 H   0  0  0  0  0  0
   -0.3451    6.0890   24.3577 H   0  0  0  0  0  0
    0.5461    6.4534   22.2830 H   0  0  0  0  0  0
    2.0324    7.2742   22.1261 H   0  0  0  0  0  0
  1  2  2  0  0  0
  1  3  1  0  0  0
  1 11  1  0  0  0
  3 30  1  0  0  0
  4  5  2  0  0  0
  4  9  1  0  0  0
  5  6  1  0  0  0
  6  7  2  0  0  0
  7  8  1  0  0  0
  7 10  1  0  0  0
  8  9  2  0  0  0
 10 14  1  0  0  0
 10 31  1  0  0  0
 11 12  1  0  0  0
 11 21  1  0  0  0
 12 13  1  0  0  0
 13 14  1  0  0  0
 15 17  2  0  0  0
 15 32  1  0  0  0
 16 17  1  0  0  0
 16 33  1  0  0  0
 16 34  1  0  0  0
 17 28  1  0  0  0
 18 19  2  0  0  0
 18 23  1  0  0  0
 19 20  1  0  0  0
 20 21  2  0  0  0
 21 22  1  0  0  0
 22 23  2  0  0  0
 23 26  1  0  0  0
 24 25  2  0  0  0
 24 29  1  0  0  0
 25 26  1  0  0  0
 26 27  2  0  0  0
 27 28  1  0  0  0
 28 29  2  0  0  0
M  END
>  <CHROM.0>
132.48193921,-60.67265851,-144.57111063,24.64389234,82.53176648,-154.19914585
112.60087209,113.53697704,146.39452936

>  <CHROM.1>
16.82134513,43.08030988,58.43380194,88.38556677,170.39834752,85.42626587
128.14720661,-101.42362292,134.04542395,-179.52070884,8.17422663,7.85255339
25.17897023,-0.18771764,-0.07634100,-1.25279358

>  <FORMUL>
      4PP    C23 H24 N4 O2

>  <HET>
 4PP  C 500      29

>  <HETNAM>
     4PP (2S)-(3'-AMIDINO-3-BIPHENYL)-5-(4-PYRIDYLAMINO)PENTANOI
   2 4PP C ACID

>  <Name>
4PP.pdb

>  <RI>
0

>  <Rbt.Current_Directory>
/home/malgorzata/Desktop/rDOCK_IFD/test7

>  <Rbt.Executable>
rbdock ($Id: //depot/dev/client3/rdock/2013.1/src/exe/rbdock.cxx#4 $)

>  <Rbt.Library>
libRbt.so (2013.1, Build901 2013/11/27)

>  <Rbt.Parameter_File>
/home/malgorzata/Desktop/rDock_2013.1_src/data/scripts/soft_docking.prm

>  <Rbt.Receptor>
cavity.prm

>  <SCORE>
-29.1217

>  <SCORE.INTER>
-32.3642

>  <SCORE.INTER.CONST>
1

>  <SCORE.INTER.POLAR>
-0.761362

>  <SCORE.INTER.REPUL>
0.21427

>  <SCORE.INTER.ROT>
9

>  <SCORE.INTER.VDW>
-45.2469

>  <SCORE.INTER.norm>
-1.11601

>  <SCORE.INTRA>
2.53342

>  <SCORE.INTRA.DIHEDRAL>
13.4489

>  <SCORE.INTRA.DIHEDRAL.0>
20.1331

>  <SCORE.INTRA.POLAR>
0

>  <SCORE.INTRA.POLAR.0>
0

>  <SCORE.INTRA.REPUL>
0

>  <SCORE.INTRA.REPUL.0>
0

>  <SCORE.INTRA.VDW>
-0.156365

>  <SCORE.INTRA.VDW.0>
0.0644272

>  <SCORE.INTRA.norm>
0.0873594

>  <SCORE.RESTR>
0.21058

>  <SCORE.RESTR.CAVITY>
0.21058

>  <SCORE.RESTR.norm>
0.00726139

>  <SCORE.SYSTEM>
0.498492

>  <SCORE.SYSTEM.CONST>
0

>  <SCORE.SYSTEM.DIHEDRAL>
16.5783

>  <SCORE.SYSTEM.POLAR>
-2.7928

>  <SCORE.SYSTEM.REPUL>
1.08462

>  <SCORE.SYSTEM.VDW>
-3.71828

>  <SCORE.SYSTEM.norm>
0.0171894

>  <SCORE.heavy>
29

>  <SCORE.norm>
-1.0042

$$$$
4PP.pdb
  rDOCK(R)          3D
libRbt.so/2013.1/901 2013/11/27
 34 36  0  0  0  0  0  0  0  0999 V2000
    3.1448    2.3068   21.1948 C   0  0  0  0  0  0
    3.1924    2.7691   20.0464 O   0  0  0  0  0  0
    2.1163    1.4828   21.5641 O   0  0  0  0  0  0
    7.4461   -1.4845   16.8202 N   0  0  0  0  0  0
    8.7299   -0.9096   16.8971 C   0  0  0  0  0  0
    9.0167    0.0224   17.9159 C   0  0  0  0  0  0
    8.0245    0.3793   18.8522 C   0  0  0  0  0  0
    6.7296   -0.2058   18.7714 C   0  0  0  0  0  0
    6.4487   -1.1328   17.7575 C   0  0  0  0  0  0
    8.3733    1.3676   19.9071 N   0  0  0  0  0  0
    4.2640    2.6645   22.1933 C   0  0  0  0  0  0
    5.4806    3.2457   21.4685 C   0  0  0  0  0  0
    6.4564    2.0987   21.2244 C   0  0  0  0  0  0
    7.3620    2.4381   20.0459 C   0  0  0  0  0  0
    9.0025    9.4059   25.0496 N   0  0  0  0  0  0
    8.8911    7.2423   24.3210 N   0  0  0  0  0  0
    8.2962    8.3217   24.7880 C   0  0  0  0  0  0
    2.6567    5.4254   25.1989 C   0  0  0  0  0  0
    1.9656    4.2244   24.8797 C   0  0  0  0  0  0
    2.4974    3.3394   23.9062 C   0  0  0  0  0  0
    3.7215    3.6474   23.2435 C   0  0  0  0  0  0
    4.4219    4.8572   23.5594 C   0  0  0  0  0  0
    3.8908    5.7501   24.5398 C   0  0  0  0  0  0
    4.6756    9.3893   25.7285 C   0  0  0  0  0  0
    3.9519    8.2019   25.4144 C   0  0  0  0  0  0
    4.6446    7.0609   24.8971 C   0  0  0  0  0  0
    6.0492    7.1245   24.7015 C   0  0  0  0  0  0
    6.7726    8.3016   25.0146 C   0  0  0  0  0  0
    6.0879    9.4388   25.5281 C   0  0  0  0  0  0
    1.4791    1.2161   20.9310 H   0  0  0  0  0  0
    9.1899    1.3150   20.4544 H   0  0  0  0  0  0
    9.9757    9.4072   24.9009 H   0  0  0  0  0  0
    9.8642    7.2421   24.1718 H   0  0  0  0  0  0
    8.3624    6.4361   24.1215 H   0  0  0  0  0  0
  1  2  2  0  0  0
  1  3  1  0  0  0
  1 11  1  0  0  0
  3 30  1  0  0  0
  4  5  2  0  0  0
  4  9  1  0  0  0
  5  6  1  0  0  0
  6  7  2  0  0  0
  7  8  1  0  0  0
  7 10  1  0  0  0
  8  9  2  0  0  0
 10 14  1  0  0  0
 10 31  1  0  0  0
 11 12  1  0  0  0
 11 21  1  0  0  0
 12 13  1  0  0  0
 13 14  1  0  0  0
 15 17  2  0  0  0
 15 32  1  0  0  0
 16 17  1  0  0  0
 16 33  1  0  0  0
 16 34  1  0  0  0
 17 28  1  0  0  0
 18 19  2  0  0  0
 18 23  1  0  0  0
 19 20  1  0  0  0
 20 21  2  0  0  0
 21 22  1  0  0  0
 22 23  2  0  0  0
 23 26  1  0  0  0
 24 25  2  0  0  0
 24 29  1  0  0  0
 25 26  1  0  0  0
 26 27  2  0  0  0
 27 28  1  0  0  0
 28 29  2  0  0  0
M  END
>  <CHROM.0>
122.60490782,-60.67265851,30.06310160,93.69309478,176.53132553,-62.39583389
96.81995113,130.77605404,28.96028786

>  <CHROM.1>
4.45117593,-15.79522055,131.97234894,99.08910702,-95.09991637,49.71563850
156.18089329,175.03176981,179.02789843,-26.13351271,5.68413292,3.98198006
22.20709101,1.43089210,-0.28520162,-2.47731548

>  <FORMUL>
      4PP    C23 H24 N4 O2

>  <HET>
 4PP  C 500      29

>  <HETNAM>
     4PP (2S)-(3'-AMIDINO-3-BIPHENYL)-5-(4-PYRIDYLAMINO)PENTANOI
   2 4PP C ACID

>  <Name>
4PP.pdb

>  <RI>
0

>  <Rbt.Current_Directory>
/home/malgorzata/Desktop/rDOCK_IFD/test7

>  <Rbt.Executable>
rbdock ($Id: //depot/dev/client3/rdock/2013.1/src/exe/rbdock.cxx#4 $)

>  <Rbt.Library>
libRbt.so (2013.1, Build901 2013/11/27)

>  <Rbt.Parameter_File>
/home/malgorzata/Desktop/rDock_2013.1_src/data/scripts/soft_docking.prm

>  <Rbt.Receptor>
cavity.prm

>  <SCORE>
-28.8428

>  <SCORE.INTER>
-24.4755

>  <SCORE.INTER.CONST>
1

>  <SCORE.INTER.POLAR>
-0.350126

>  <SCORE.INTER.REPUL>
0

>  <SCORE.INTER.ROT>
9

>  <SCORE.INTER.VDW>
-37.6851

>  <SCORE.INTER.norm>
-0.843983

>  <SCORE.INTRA>
-0.341291

>  <SCORE.INTRA.DIHEDRAL>
-2.38882

>  <SCORE.INTRA.DIHEDRAL.0>
20.1331

>  <SCORE.INTRA.POLAR>
0

>  <SCORE.INTRA.POLAR.0>
0

>  <SCORE.INTRA.REPUL>
0

>  <SCORE.INTRA.REPUL.0>
0

>  <SCORE.INTRA.VDW>
0.136474

>  <SCORE.INTRA.VDW.0>
0.0644272

>  <SCORE.INTRA.norm>
-0.0117687

>  <SCORE.RESTR>
0

>  <SCORE.RESTR.CAVITY>
0

>  <SCORE.RESTR.norm>
0

>  <SCORE.SYSTEM>
-4.02596

>  <SCORE.SYSTEM.CONST>
0

>  <SCORE.SYSTEM.DIHEDRAL>
9.6369

>  <SCORE.SYSTEM.POLAR>
-2.39832

>  <SCORE.SYSTEM.REPUL>
0.657809

>  <SCORE.SYSTEM.VDW>
-3.97916

>  <SCORE.SYSTEM.norm>
-0.138826

>  <SCORE.heavy>
29

>  <SCORE.norm>
-0.994578

$$$$
4PP.pdb
  rDOCK(R)          3D
libRbt.so/2013.1/901 2013/11/27
 34 36  0  0  0  0  0  0  0  0999 V2000
    5.8090    4.4586   20.0986 C   0  0  0  0  0  0
    4.6163    4.1369   20.0062 O   0  0  0  0  0  0
    6.5606    4.6506   18.9710 O   0  0  0  0  0  0
   10.4943    1.6700   17.6578 N   0  0  0  0  0  0
    9.7770    2.7284   18.2492 C   0  0  0  0  0  0
    8.7136    2.4434   19.1306 C   0  0  0  0  0  0
    8.3678    1.1069   19.4181 C   0  0  0  0  0  0
    9.0968    0.0411   18.8196 C   0  0  0  0  0  0
   10.1541    0.3286   17.9446 C   0  0  0  0  0  0
    7.2381    0.8561   20.3518 N   0  0  0  0  0  0
    6.4273    4.6491   21.4983 C   0  0  0  0  0  0
    7.5146    3.6050   21.7644 C   0  0  0  0  0  0
    6.8190    2.3349   22.2443 C   0  0  0  0  0  0
    7.5943    1.1132   21.7642 C   0  0  0  0  0  0
   11.6848    7.5952   28.0490 N   0  0  0  0  0  0
   10.0596    6.1418   27.3629 N   0  0  0  0  0  0
   10.8817    7.1393   27.1056 C   0  0  0  0  0  0
    7.9692    8.7438   21.8078 C   0  0  0  0  0  0
    6.8673    8.4501   20.9584 C   0  0  0  0  0  0
    6.3776    7.1213   20.8686 C   0  0  0  0  0  0
    6.9851    6.0761   21.6244 C   0  0  0  0  0  0
    8.0972    6.3653   22.4808 C   0  0  0  0  0  0
    8.5922    7.7019   22.5752 C   0  0  0  0  0  0
   11.9533    9.1461   23.9500 C   0  0  0  0  0  0
   10.8668    8.8689   23.0698 C   0  0  0  0  0  0
    9.7921    8.0299   23.5063 C   0  0  0  0  0  0
    9.8204    7.4808   24.8150 C   0  0  0  0  0  0
   10.8969    7.7557   25.6939 C   0  0  0  0  0  0
   11.9680    8.5884   25.2638 C   0  0  0  0  0  0
    6.2754    4.2960   18.1519 H   0  0  0  0  0  0
    6.3482    0.5514   20.0610 H   0  0  0  0  0  0
   11.6664    7.1935   28.9477 H   0  0  0  0  0  0
   10.0401    5.7391   28.2610 H   0  0  0  0  0  0
    9.4649    5.7994   26.6569 H   0  0  0  0  0  0
  1  2  2  0  0  0
  1  3  1  0  0  0
  1 11  1  0  0  0
  3 30  1  0  0  0
  4  5  2  0  0  0
  4  9  1  0  0  0
  5  6  1  0  0  0
  6  7  2  0  0  0
  7  8  1  0  0  0
  7 10  1  0  0  0
  8  9  2  0  0  0
 10 14  1  0  0  0
 10 31  1  0  0  0
 11 12  1  0  0  0
 11 21  1  0  0  0
 12 13  1  0  0  0
 13 14  1  0  0  0
 15 17  2  0  0  0
 15 32  1  0  0  0
 16 17  1  0  0  0
 16 33  1  0  0  0
 16 34  1  0  0  0
 17 28  1  0  0  0
 18 19  2  0  0  0
 18 23  1  0  0  0
 19 20  1  0  0  0
 20 21  2  0  0  0
 21 22  1  0  0  0
 22 23  2  0  0  0
 23 26  1  0  0  0
 24 25  2  0  0  0
 24 29  1  0  0  0
 25 26  1  0  0  0
 26 27  2  0  0  0
 27 28  1  0  0  0
 28 29  2  0  0  0
M  END
>  <CHROM.0>
-141.31031254,-60.67265851,-15.80916613,166.14766303,-143.93046812,-57.03995241
-87.52547833,144.89887137,-145.61167367

>  <CHROM.1>
-18.76957028,115.05884704,-74.80549475,111.89096655,-83.09341715,28.86378325
146.86907391,-80.16029637,-164.63884577,-44.79724068,8.64275151,5.08305445
21.95854556,1.96291484,0.70372210,-2.60935024

>  <FORMUL>
      4PP    C23 H24 N4 O2

>  <HET>
 4PP  C 500      29

>  <HETNAM>
     4PP (2S)-(3'-AMIDINO-3-BIPHENYL)-5-(4-PYRIDYLAMINO)PENTANOI
   2 4PP C ACID

>  <Name>
4PP.pdb

>  <RI>
0

>  <Rbt.Current_Directory>
/home/malgorzata/Desktop/rDOCK_IFD/test7

>  <Rbt.Executable>
rbdock ($Id: //depot/dev/client3/rdock/2013.1/src/exe/rbdock.cxx#4 $)

>  <Rbt.Library>
libRbt.so (2013.1, Build901 2013/11/27)

>  <Rbt.Parameter_File>
/home/malgorzata/Desktop/rDock_2013.1_src/data/scripts/soft_docking.prm

>  <Rbt.Receptor>
cavity.prm

>  <SCORE>
-31.4522

>  <SCORE.INTER>
-29.0123

>  <SCORE.INTER.CONST>
1

>  <SCORE.INTER.POLAR>
-3.20543

>  <SCORE.INTER.REPUL>
1.24476

>  <SCORE.INTER.ROT>
9

>  <SCORE.INTER.VDW>
-38.7376

>  <SCORE.INTER.norm>
-1.00042

>  <SCORE.INTRA>
-0.770517

>  <SCORE.INTRA.DIHEDRAL>
7.96808

>  <SCORE.INTRA.DIHEDRAL.0>
20.1331

>  <SCORE.INTRA.POLAR>
0

>  <SCORE.INTRA.POLAR.0>
0

>  <SCORE.INTRA.REPUL>
0

>  <SCORE.INTRA.REPUL.0>
0

>  <SCORE.INTRA.VDW>
-2.36413

>  <SCORE.INTRA.VDW.0>
0.0644272

>  <SCORE.INTRA.norm>
-0.0265696

>  <SCORE.RESTR>
0.230146

>  <SCORE.RESTR.CAVITY>
0.230146

>  <SCORE.RESTR.norm>
0.00793605

>  <SCORE.SYSTEM>
-1.89952

>  <SCORE.SYSTEM.CONST>
0

>  <SCORE.SYSTEM.DIHEDRAL>
8.81059

>  <SCORE.SYSTEM.POLAR>
-1.68182

>  <SCORE.SYSTEM.REPUL>
0.657809

>  <SCORE.SYSTEM.VDW>
-3.87567

>  <SCORE.SYSTEM.norm>
-0.0655008

>  <SCORE.heavy>
29

>  <SCORE.norm>
-1.08456

$$$$
4PP.pdb
  rDOCK(R)          3D
libRbt.so/2013.1/901 2013/11/27
 34 36  0  0  0  0  0  0  0  0999 V2000
    4.9754    6.1297   19.9495 C   0  0  0  0  0  0
    4.4523    5.3199   19.1716 O   0  0  0  0  0  0
    4.2038    7.0444   20.6139 O   0  0  0  0  0  0
    9.7149    8.2698   25.9999 N   0  0  0  0  0  0
    9.4577    9.5464   25.4627 C   0  0  0  0  0  0
    9.4477    9.7253   24.0639 C   0  0  0  0  0  0
    9.6952    8.6338   23.2062 C   0  0  0  0  0  0
    9.9527    7.3455   23.7538 C   0  0  0  0  0  0
    9.9608    7.1715   25.1451 C   0  0  0  0  0  0
    9.6762    8.8717   21.7385 N   0  0  0  0  0  0
    6.5016    6.0835   20.1644 C   0  0  0  0  0  0
    6.9546    7.1894   21.1210 C   0  0  0  0  0  0
    7.8260    8.1539   20.3224 C   0  0  0  0  0  0
    8.3393    9.2593   21.2383 C   0  0  0  0  0  0
   12.3471    0.3765   18.8166 N   0  0  0  0  0  0
   11.8305   -1.6392   17.8707 N   0  0  0  0  0  0
   11.4481   -0.4809   18.3700 C   0  0  0  0  0  0
    7.6431    2.1483   21.7300 C   0  0  0  0  0  0
    7.2345    3.1853   22.6130 C   0  0  0  0  0  0
    6.8666    4.4533   22.0931 C   0  0  0  0  0  0
    6.9054    4.6959   20.6887 C   0  0  0  0  0  0
    7.3181    3.6555   19.7937 C   0  0  0  0  0  0
    7.6878    2.3771   20.3129 C   0  0  0  0  0  0
    7.6201   -0.5079   17.6776 C   0  0  0  0  0  0
    7.1797    0.5336   18.5455 C   0  0  0  0  0  0
    8.1292    1.2384   19.3524 C   0  0  0  0  0  0
    9.5036    0.8909   19.2796 C   0  0  0  0  0  0
    9.9461   -0.1418   18.4167 C   0  0  0  0  0  0
    9.0054   -0.8459   17.6135 C   0  0  0  0  0  0
    4.5880    7.5946   21.2679 H   0  0  0  0  0  0
   10.4687    8.7809   21.1615 H   0  0  0  0  0  0
   13.3043    0.1489   18.7817 H   0  0  0  0  0  0
   12.7874   -1.8681   17.8351 H   0  0  0  0  0  0
   11.1594   -2.2756   17.5333 H   0  0  0  0  0  0
  1  2  2  0  0  0
  1  3  1  0  0  0
  1 11  1  0  0  0
  3 30  1  0  0  0
  4  5  2  0  0  0
  4  9  1  0  0  0
  5  6  1  0  0  0
  6  7  2  0  0  0
  7  8  1  0  0  0
  7 10  1  0  0  0
  8  9  2  0  0  0
 10 14  1  0  0  0
 10 31  1  0  0  0
 11 12  1  0  0  0
 11 21  1  0  0  0
 12 13  1  0  0  0
 13 14  1  0  0  0
 15 17  2  0  0  0
 15 32  1  0  0  0
 16 17  1  0  0  0
 16 33  1  0  0  0
 16 34  1  0  0  0
 17 28  1  0  0  0
 18 19  2  0  0  0
 18 23  1  0  0  0
 19 20  1  0  0  0
 20 21  2  0  0  0
 21 22  1  0  0  0
 22 23  2  0  0  0
 23 26  1  0  0  0
 24 25  2  0  0  0
 24 29  1  0  0  0
 25 26  1  0  0  0
 26 27  2  0  0  0
 27 28  1  0  0  0
 28 29  2  0  0  0
M  END
>  <CHROM.0>
103.36421032,-60.67265851,1.38093764,-175.52227843,-88.33802444,-56.51624530
125.28828612,-140.73923606,159.83539423

>  <CHROM.1>
173.56047117,178.11758265,-65.27617564,-114.19546181,-114.28235197,-86.80593903
-178.42358313,94.28870717,-18.49082525,105.36166417,8.32471690,4.48556547
20.84894532,1.69167442,-0.39851830,0.55293129

>  <FORMUL>
      4PP    C23 H24 N4 O2

>  <HET>
 4PP  C 500      29

>  <HETNAM>
     4PP (2S)-(3'-AMIDINO-3-BIPHENYL)-5-(4-PYRIDYLAMINO)PENTANOI
   2 4PP C ACID

>  <Name>
4PP.pdb

>  <RI>
0

>  <Rbt.Current_Directory>
/home/malgorzata/Desktop/rDOCK_IFD/test7

>  <Rbt.Executable>
rbdock ($Id: //depot/dev/client3/rdock/2013.1/src/exe/rbdock.cxx#4 $)

>  <Rbt.Library>
libRbt.so (2013.1, Build901 2013/11/27)

>  <Rbt.Parameter_File>
/home/malgorzata/Desktop/rDock_2013.1_src/data/scripts/soft_docking.prm

>  <Rbt.Receptor>
cavity.prm

>  <SCORE>
-33.2987

>  <SCORE.INTER>
-29.0352

>  <SCORE.INTER.CONST>
1

>  <SCORE.INTER.POLAR>
-1.72222

>  <SCORE.INTER.REPUL>
0.676282

>  <SCORE.INTER.ROT>
9

>  <SCORE.INTER.VDW>
-40.9611

>  <SCORE.INTER.norm>
-1.00121

>  <SCORE.INTRA>
0.554186

>  <SCORE.INTRA.DIHEDRAL>
10.3579

>  <SCORE.INTRA.DIHEDRAL.0>
20.1331

>  <SCORE.INTRA.POLAR>
0

>  <SCORE.INTRA.POLAR.0>
0

>  <SCORE.INTRA.REPUL>
0

>  <SCORE.INTRA.REPUL.0>
0

>  <SCORE.INTRA.VDW>
-1.51739

>  <SCORE.INTRA.VDW.0>
0.0644272

>  <SCORE.INTRA.norm>
0.0191099

>  <SCORE.RESTR>
0

>  <SCORE.RESTR.CAVITY>
0

>  <SCORE.RESTR.norm>
0

>  <SCORE.SYSTEM>
-4.81771

>  <SCORE.SYSTEM.CONST>
0

>  <SCORE.SYSTEM.DIHEDRAL>
6.54842

>  <SCORE.SYSTEM.POLAR>
-2.16847

>  <SCORE.SYSTEM.REPUL>
0.657809

>  <SCORE.SYSTEM.VDW>
-4.00818

>  <SCORE.SYSTEM.norm>
-0.166128

>  <SCORE.heavy>
29

>  <SCORE.norm>
-1.14823

$$$$
4PP.pdb
  rDOCK(R)          3D
libRbt.so/2013.1/901 2013/11/27
 34 36  0  0  0  0  0  0  0  0999 V2000
    8.2413    4.4942   19.9283 C   0  0  0  0  0  0
    9.1314    3.7716   19.4588 O   0  0  0  0  0  0
    8.4603    5.8343   20.0997 O   0  0  0  0  0  0
    9.7537   -2.6304   16.5324 N   0  0  0  0  0  0
    8.4625   -2.8349   16.0076 C   0  0  0  0  0  0
    7.3690   -2.1298   16.5517 C   0  0  0  0  0  0
    7.5650   -1.2260   17.6161 C   0  0  0  0  0  0
    8.8718   -1.0215   18.1415 C   0  0  0  0  0  0
    9.9566   -1.7237   17.5972 C   0  0  0  0  0  0
    6.3814   -0.5073   18.1580 N   0  0  0  0  0  0
    6.8853    3.8639   20.3044 C   0  0  0  0  0  0
    7.0283    2.3594   20.5478 C   0  0  0  0  0  0
    6.7437    1.6547   19.2250 C   0  0  0  0  0  0
    6.6545    0.1502   19.4545 C   0  0  0  0  0  0
   11.7275    9.0450   24.4213 N   0  0  0  0  0  0
   10.0928   10.2675   23.3928 N   0  0  0  0  0  0
   10.4496    9.2730   24.1807 C   0  0  0  0  0  0
    5.1852    5.8685   23.8159 C   0  0  0  0  0  0
    4.3537    5.1158   22.9419 C   0  0  0  0  0  0
    4.9169    4.4712   21.8101 C   0  0  0  0  0  0
    6.3133    4.5746   21.5417 C   0  0  0  0  0  0
    7.1563    5.3333   22.4178 C   0  0  0  0  0  0
    6.5936    5.9825   23.5590 C   0  0  0  0  0  0
    8.1715    7.5070   26.7931 C   0  0  0  0  0  0
    7.3250    6.7396   25.9407 C   0  0  0  0  0  0
    7.4983    6.8013   24.5209 C   0  0  0  0  0  0
    8.5143    7.6291   23.9756 C   0  0  0  0  0  0
    9.3594    8.3916   24.8190 C   0  0  0  0  0  0
    9.1900    8.3341   26.2310 C   0  0  0  0  0  0
    9.2688    6.2165   19.8200 H   0  0  0  0  0  0
    5.5093   -0.4728   17.7025 H   0  0  0  0  0  0
   12.4156    9.6149   24.0078 H   0  0  0  0  0  0
   10.7798   10.8383   22.9786 H   0  0  0  0  0  0
    9.1393   10.4396   23.2183 H   0  0  0  0  0  0
  1  2  2  0  0  0
  1  3  1  0  0  0
  1 11  1  0  0  0
  3 30  1  0  0  0
  4  5  2  0  0  0
  4  9  1  0  0  0
  5  6  1  0  0  0
  6  7  2  0  0  0
  7  8  1  0  0  0
  7 10  1  0  0  0
  8  9  2  0  0  0
 10 14  1  0  0  0
 10 31  1  0  0  0
 11 12  1  0  0  0
 11 21  1  0  0  0
 12 13  1  0  0  0
 13 14  1  0  0  0
 15 17  2  0  0  0
 15 32  1  0  0  0
 16 17  1  0  0  0
 16 33  1  0  0  0
 16 34  1  0  0  0
 17 28  1  0  0  0
 18 19  2  0  0  0
 18 23  1  0  0  0
 19 20  1  0  0  0
 20 21  2  0  0  0
 21 22  1  0  0  0
 22 23  2  0  0  0
 23 26  1  0  0  0
 24 25  2  0  0  0
 24 29  1  0  0  0
 25 26  1  0  0  0
 26 27  2  0  0  0
 27 28  1  0  0  0
 28 29  2  0  0  0
M  END
>  <CHROM.0>
21.07448347,-60.67265851,157.89554721,-174.63921207,-123.78123597,-60.48464741
124.20189569,-28.17121798,107.52908104

>  <CHROM.1>
3.22740561,22.42938287,166.29929580,106.79487564,-92.21083150,159.96473805
-171.10592098,-179.87775396,-117.37696577,40.55207236,7.91423946,3.98841156
21.31908316,-1.63111487,0.30551884,0.67110832

>  <FORMUL>
      4PP    C23 H24 N4 O2

>  <HET>
 4PP  C 500      29

>  <HETNAM>
     4PP (2S)-(3'-AMIDINO-3-BIPHENYL)-5-(4-PYRIDYLAMINO)PENTANOI
   2 4PP C ACID

>  <Name>
4PP.pdb

>  <RI>
0

>  <Rbt.Current_Directory>
/home/malgorzata/Desktop/rDOCK_IFD/test7

>  <Rbt.Executable>
rbdock ($Id: //depot/dev/client3/rdock/2013.1/src/exe/rbdock.cxx#4 $)

>  <Rbt.Library>
libRbt.so (2013.1, Build901 2013/11/27)

>  <Rbt.Parameter_File>
/home/malgorzata/Desktop/rDock_2013.1_src/data/scripts/soft_docking.prm

>  <Rbt.Receptor>
cavity.prm

>  <SCORE>
-32.211

>  <SCORE.INTER>
-28.5799

>  <SCORE.INTER.CONST>
1

>  <SCORE.INTER.POLAR>
-0.889087

>  <SCORE.INTER.REPUL>
0

>  <SCORE.INTER.ROT>
9

>  <SCORE.INTER.VDW>
-39.9571

>  <SCORE.INTER.norm>
-0.985515

>  <SCORE.INTRA>
-0.112603

>  <SCORE.INTRA.DIHEDRAL>
0.433879

>  <SCORE.INTRA.DIHEDRAL.0>
20.1331

>  <SCORE.INTRA.POLAR>
0

>  <SCORE.INTRA.POLAR.0>
0

>  <SCORE.INTRA.REPUL>
0

>  <SCORE.INTRA.REPUL.0>
0

>  <SCORE.INTRA.VDW>
-0.199379

>  <SCORE.INTRA.VDW.0>
0.0644272

>  <SCORE.INTRA.norm>
-0.00388287

>  <SCORE.RESTR>
0

>  <SCORE.RESTR.CAVITY>
0

>  <SCORE.RESTR.norm>
0

>  <SCORE.SYSTEM>
-3.51843

>  <SCORE.SYSTEM.CONST>
0

>  <SCORE.SYSTEM.DIHEDRAL>
10.2075

>  <SCORE.SYSTEM.POLAR>
-2.34093

>  <SCORE.SYSTEM.REPUL>
0.657809

>  <SCORE.SYSTEM.VDW>
-3.95207

>  <SCORE.SYSTEM.norm>
-0.121325

>  <SCORE.heavy>
29

>  <SCORE.norm>
-1.11072

$$$$
4PP.pdb
  rDOCK(R)          3D
libRbt.so/2013.1/901 2013/11/27
 34 36  0  0  0  0  0  0  0  0999 V2000
    6.9990    6.8269   20.3348 C   0  0  0  0  0  0
    6.5617    7.5133   19.4008 O   0  0  0  0  0  0
    8.3459    6.7598   20.5692 O   0  0  0  0  0  0
    8.7647    0.7618   18.1371 N   0  0  0  0  0  0
    8.6398    1.6356   19.2350 C   0  0  0  0  0  0
    7.3579    2.0369   19.6645 C   0  0  0  0  0  0
    6.2065    1.5685   18.9988 C   0  0  0  0  0  0
    6.3379    0.6842   17.8913 C   0  0  0  0  0  0
    7.6142    0.2867   17.4678 C   0  0  0  0  0  0
    4.8767    2.0208   19.4867 N   0  0  0  0  0  0
    6.0051    6.0617   21.2315 C   0  0  0  0  0  0
    6.3611    4.5745   21.3004 C   0  0  0  0  0  0
    5.0620    3.7879   21.1562 C   0  0  0  0  0  0
    4.8067    3.4851   19.6841 C   0  0  0  0  0  0
   12.1477    7.1683   28.3385 N   0  0  0  0  0  0
   10.4184    5.6978   28.0707 N   0  0  0  0  0  0
   10.9910    6.8507   27.7874 C   0  0  0  0  0  0
    5.8746    7.8563   25.2319 C   0  0  0  0  0  0
    4.6829    7.3929   24.6098 C   0  0  0  0  0  0
    4.7394    6.8132   23.3158 C   0  0  0  0  0  0
    5.9852    6.6933   22.6330 C   0  0  0  0  0  0
    7.1897    7.1601   23.2538 C   0  0  0  0  0  0
    7.1373    7.7429   24.5569 C   0  0  0  0  0  0
   10.1650    9.9736   25.6197 C   0  0  0  0  0  0
    8.9684    9.5468   24.9731 C   0  0  0  0  0  0
    8.4370    8.2454   25.2441 C   0  0  0  0  0  0
    9.1100    7.3911   26.1565 C   0  0  0  0  0  0
   10.2980    7.8120   26.8031 C   0  0  0  0  0  0
   10.8305    9.1046   26.5359 C   0  0  0  0  0  0
    8.7629    5.9268   20.6704 H   0  0  0  0  0  0
    4.1235    1.4110   19.6599 H   0  0  0  0  0  0
   12.5813    6.5460   28.9662 H   0  0  0  0  0  0
   10.8509    5.0745   28.6982 H   0  0  0  0  0  0
    9.5583    5.4600   27.6550 H   0  0  0  0  0  0
  1  2  2  0  0  0
  1  3  1  0  0  0
  1 11  1  0  0  0
  3 30  1  0  0  0
  4  5  2  0  0  0
  4  9  1  0  0  0
  5  6  1  0  0  0
  6  7  2  0  0  0
  7  8  1  0  0  0
  7 10  1  0  0  0
  8  9  2  0  0  0
 10 14  1  0  0  0
 10 31  1  0  0  0
 11 12  1  0  0  0
 11 21  1  0  0  0
 12 13  1  0  0  0
 13 14  1  0  0  0
 15 17  2  0  0  0
 15 32  1  0  0  0
 16 17  1  0  0  0
 16 33  1  0  0  0
 16 34  1  0  0  0
 17 28  1  0  0  0
 18 19  2  0  0  0
 18 23  1  0  0  0
 19 20  1  0  0  0
 20 21  2  0  0  0
 21 22  1  0  0  0
 22 23  2  0  0  0
 23 26  1  0  0  0
 24 25  2  0  0  0
 24 29  1  0  0  0
 25 26  1  0  0  0
 26 27  2  0  0  0
 27 28  1  0  0  0
 28 29  2  0  0  0
M  END
>  <CHROM.0>
-51.84519466,-60.67265851,145.78243262,-52.99508375,134.62152338,-145.20091816
-175.72859620,23.13265992,104.23646201

>  <CHROM.1>
-129.83062189,126.04810341,48.59204530,-96.87066525,-136.18188890,140.68673864
90.64958897,114.89788021,175.26391904,-96.38564103,7.62575196,5.60258077
22.64277309,1.95768142,0.59923549,-2.44739108

>  <FORMUL>
      4PP    C23 H24 N4 O2

>  <HET>
 4PP  C 500      29

>  <HETNAM>
     4PP (2S)-(3'-AMIDINO-3-BIPHENYL)-5-(4-PYRIDYLAMINO)PENTANOI
   2 4PP C ACID

>  <Name>
4PP.pdb

>  <RI>
0

>  <Rbt.Current_Directory>
/home/malgorzata/Desktop/rDOCK_IFD/test7

>  <Rbt.Executable>
rbdock ($Id: //depot/dev/client3/rdock/2013.1/src/exe/rbdock.cxx#4 $)

>  <Rbt.Library>
libRbt.so (2013.1, Build901 2013/11/27)

>  <Rbt.Parameter_File>
/home/malgorzata/Desktop/rDock_2013.1_src/data/scripts/soft_docking.prm

>  <Rbt.Receptor>
cavity.prm

>  <SCORE>
-26.7216

>  <SCORE.INTER>
-27.6044

>  <SCORE.INTER.CONST>
1

>  <SCORE.INTER.POLAR>
-1.26859

>  <SCORE.INTER.REPUL>
0.78346

>  <SCORE.INTER.ROT>
9

>  <SCORE.INTER.VDW>
-41.6085

>  <SCORE.INTER.norm>
-0.951877

>  <SCORE.INTRA>
2.22376

>  <SCORE.INTRA.DIHEDRAL>
22.4592

>  <SCORE.INTRA.DIHEDRAL.0>
20.1331

>  <SCORE.INTRA.POLAR>
0

>  <SCORE.INTRA.POLAR.0>
0

>  <SCORE.INTRA.REPUL>
0

>  <SCORE.INTRA.REPUL.0>
0

>  <SCORE.INTRA.VDW>
-2.26809

>  <SCORE.INTRA.VDW.0>
0.0644272

>  <SCORE.INTRA.norm>
0.0766812

>  <SCORE.RESTR>
0

>  <SCORE.RESTR.CAVITY>
0

>  <SCORE.RESTR.norm>
0

>  <SCORE.SYSTEM>
-1.34094

>  <SCORE.SYSTEM.CONST>
0

>  <SCORE.SYSTEM.DIHEDRAL>
14.3125

>  <SCORE.SYSTEM.POLAR>
-3.01961

>  <SCORE.SYSTEM.REPUL>
1.0261

>  <SCORE.SYSTEM.VDW>
-3.36102

>  <SCORE.SYSTEM.norm>
-0.0462393

>  <SCORE.heavy>
29

>  <SCORE.norm>
-0.921435

$$$$
4PP.pdb
  rDOCK(R)          3D
libRbt.so/2013.1/901 2013/11/27
 34 36  0  0  0  0  0  0  0  0999 V2000
    7.0751    6.1953   22.0788 C   0  0  0  0  0  0
    7.6999    6.5372   21.0652 O   0  0  0  0  0  0
    7.3415    4.9953   22.6807 O   0  0  0  0  0  0
    0.2698   11.7477   21.7002 N   0  0  0  0  0  0
    0.3692   11.4923   23.0820 C   0  0  0  0  0  0
    0.6678   10.1891   23.5306 C   0  0  0  0  0  0
    0.8646    9.1459   22.6025 C   0  0  0  0  0  0
    0.7650    9.4095   21.2074 C   0  0  0  0  0  0
    0.4688   10.7068   20.7654 C   0  0  0  0  0  0
    1.1754    7.7882   23.1230 N   0  0  0  0  0  0
    6.0050    7.1443   22.6550 C   0  0  0  0  0  0
    4.6403    6.4544   22.7246 C   0  0  0  0  0  0
    3.5966    7.5348   22.9905 C   0  0  0  0  0  0
    2.2642    7.1231   22.3747 C   0  0  0  0  0  0
   14.0619    7.2475   26.4784 N   0  0  0  0  0  0
   13.1222    6.1798   24.6891 N   0  0  0  0  0  0
   13.0211    6.6684   25.9091 C   0  0  0  0  0  0
    7.2149    8.6034   26.6106 C   0  0  0  0  0  0
    6.0641    9.1352   25.9664 C   0  0  0  0  0  0
    5.6832    8.6532   24.6873 C   0  0  0  0  0  0
    6.4487    7.6386   24.0414 C   0  0  0  0  0  0
    7.6106    7.0998   24.6846 C   0  0  0  0  0  0
    7.9966    7.5812   25.9730 C   0  0  0  0  0  0
   10.3286    5.8701   28.6011 C   0  0  0  0  0  0
    9.1575    6.3906   27.9767 C   0  0  0  0  0  0
    9.2495    6.9996   26.6844 C   0  0  0  0  0  0
   10.5101    7.0793   26.0368 C   0  0  0  0  0  0
   11.6761    6.5612   26.6525 C   0  0  0  0  0  0
   11.5895    5.9559   27.9376 C   0  0  0  0  0  0
    6.6604    4.5352   23.1304 H   0  0  0  0  0  0
    0.7066    7.3760   23.8844 H   0  0  0  0  0  0
   14.9165    7.3103   25.9937 H   0  0  0  0  0  0
   13.9762    6.2419   24.2032 H   0  0  0  0  0  0
   12.3438    5.7528   24.2638 H   0  0  0  0  0  0
  1  2  2  0  0  0
  1  3  1  0  0  0
  1 11  1  0  0  0
  3 30  1  0  0  0
  4  5  2  0  0  0
  4  9  1  0  0  0
  5  6  1  0  0  0
  6  7  2  0  0  0
  7  8  1  0  0  0
  7 10  1  0  0  0
  8  9  2  0  0  0
 10 14  1  0  0  0
 10 31  1  0  0  0
 11 12  1  0  0  0
 11 21  1  0  0  0
 12 13  1  0  0  0
 13 14  1  0  0  0
 15 17  2  0  0  0
 15 32  1  0  0  0
 16 17  1  0  0  0
 16 33  1  0  0  0
 16 34  1  0  0  0
 17 28  1  0  0  0
 18 19  2  0  0  0
 18 23  1  0  0  0
 19 20  1  0  0  0
 20 21  2  0  0  0
 21 22  1  0  0  0
 22 23  2  0  0  0
 23 26  1  0  0  0
 24 25  2  0  0  0
 24 29  1  0  0  0
 25 26  1  0  0  0
 26 27  2  0  0  0
 27 28  1  0  0  0
 28 29  2  0  0  0
M  END
>  <CHROM.0>
0.20675797,-60.67265851,-5.36565049,-177.30464030,-160.97148649,38.41828315
177.28071786,24.34240041,73.27578149

>  <CHROM.1>
-149.26670631,122.39012608,-136.08242200,87.01896878,-167.17560929,172.54187304
150.48149607,154.11696785,124.74789725,57.70549272,6.46032751,7.68756814
24.26428974,-0.21110422,0.41415547,-2.02088472

>  <FORMUL>
      4PP    C23 H24 N4 O2

>  <HET>
 4PP  C 500      29

>  <HETNAM>
     4PP (2S)-(3'-AMIDINO-3-BIPHENYL)-5-(4-PYRIDYLAMINO)PENTANOI
   2 4PP C ACID

>  <Name>
4PP.pdb

>  <RI>
0

>  <Rbt.Current_Directory>
/home/malgorzata/Desktop/rDOCK_IFD/test7

>  <Rbt.Executable>
rbdock ($Id: //depot/dev/client3/rdock/2013.1/src/exe/rbdock.cxx#4 $)

>  <Rbt.Library>
libRbt.so (2013.1, Build901 2013/11/27)

>  <Rbt.Parameter_File>
/home/malgorzata/Desktop/rDock_2013.1_src/data/scripts/soft_docking.prm

>  <Rbt.Receptor>
cavity.prm

>  <SCORE>
-27.5159

>  <SCORE.INTER>
-25.5165

>  <SCORE.INTER.CONST>
1

>  <SCORE.INTER.POLAR>
-1.1308

>  <SCORE.INTER.REPUL>
0.0443967

>  <SCORE.INTER.ROT>
9

>  <SCORE.INTER.VDW>
-36.2938

>  <SCORE.INTER.norm>
-0.87988

>  <SCORE.INTRA>
1.73315

>  <SCORE.INTRA.DIHEDRAL>
13.847

>  <SCORE.INTRA.DIHEDRAL.0>
20.1331

>  <SCORE.INTRA.POLAR>
0

>  <SCORE.INTRA.POLAR.0>
0

>  <SCORE.INTRA.REPUL>
0

>  <SCORE.INTRA.REPUL.0>
0

>  <SCORE.INTRA.VDW>
-1.03625

>  <SCORE.INTRA.VDW.0>
0.0644272

>  <SCORE.INTRA.norm>
0.0597638

>  <SCORE.RESTR>
0.153822

>  <SCORE.RESTR.CAVITY>
0.153822

>  <SCORE.RESTR.norm>
0.0053042

>  <SCORE.SYSTEM>
-3.88633

>  <SCORE.SYSTEM.CONST>
0

>  <SCORE.SYSTEM.DIHEDRAL>
5.76682

>  <SCORE.SYSTEM.POLAR>
-2.13173

>  <SCORE.SYSTEM.REPUL>
0.741196

>  <SCORE.SYSTEM.VDW>
-3.22784

>  <SCORE.SYSTEM.norm>
-0.134011

>  <SCORE.heavy>
29

>  <SCORE.norm>
-0.948823

$$$$
4PP.pdb
  rDOCK(R)          3D
libRbt.so/2013.1/901 2013/11/27
 34 36  0  0  0  0  0  0  0  0999 V2000
   13.0482    6.6812   26.7325 C   0  0  0  0  0  0
   14.1763    6.5716   27.2326 O   0  0  0  0  0  0
   12.7432    6.0273   25.5695 O   0  0  0  0  0  0
    7.9701    7.6662   20.8116 N   0  0  0  0  0  0
    9.0275    8.3292   20.1583 C   0  0  0  0  0  0
   10.0360    8.9540   20.9209 C   0  0  0  0  0  0
    9.9868    8.9176   22.3297 C   0  0  0  0  0  0
    8.9174    8.2448   22.9850 C   0  0  0  0  0  0
    7.9172    7.6240   22.2232 C   0  0  0  0  0  0
   11.0715    9.5923   23.0908 N   0  0  0  0  0  0
   11.9948    7.5538   27.4443 C   0  0  0  0  0  0
   11.7602    8.8610   26.6831 C   0  0  0  0  0  0
   11.4458    8.4953   25.2357 C   0  0  0  0  0  0
   10.7857    9.6800   24.5395 C   0  0  0  0  0  0
   11.5600    1.5571   33.2149 N   0  0  0  0  0  0
   11.7300    3.8204   33.4860 N   0  0  0  0  0  0
   11.1405    2.7775   32.9364 C   0  0  0  0  0  0
    8.2389    5.3202   27.8248 C   0  0  0  0  0  0
    8.4348    6.2235   26.7442 C   0  0  0  0  0  0
    9.6553    6.9388   26.6323 C   0  0  0  0  0  0
   10.6879    6.7590   27.5987 C   0  0  0  0  0  0
   10.4958    5.8515   28.6912 C   0  0  0  0  0  0
    9.2694    5.1284   28.8066 C   0  0  0  0  0  0
    7.6386    2.5571   31.2566 C   0  0  0  0  0  0
    7.8036    3.4592   30.1652 C   0  0  0  0  0  0
    9.0520    4.1355   29.9818 C   0  0  0  0  0  0
   10.1154    3.9001   30.8921 C   0  0  0  0  0  0
    9.9567    3.0026   31.9767 C   0  0  0  0  0  0
    8.7170    2.3288   32.1634 C   0  0  0  0  0  0
   13.3964    5.9220   24.9060 H   0  0  0  0  0  0
   11.8921    9.9430   22.6751 H   0  0  0  0  0  0
   12.3175    1.4254   33.8298 H   0  0  0  0  0  0
   12.4876    3.6901   34.1010 H   0  0  0  0  0  0
   11.4128    4.7296   33.2814 H   0  0  0  0  0  0
  1  2  2  0  0  0
  1  3  1  0  0  0
  1 11  1  0  0  0
  3 30  1  0  0  0
  4  5  2  0  0  0
  4  9  1  0  0  0
  5  6  1  0  0  0
  6  7  2  0  0  0
  7  8  1  0  0  0
  7 10  1  0  0  0
  8  9  2  0  0  0
 10 14  1  0  0  0
 10 31  1  0  0  0
 11 12  1  0  0  0
 11 21  1  0  0  0
 12 13  1  0  0  0
 13 14  1  0  0  0
 15 17  2  0  0  0
 15 32  1  0  0  0
 16 17  1  0  0  0
 16 33  1  0  0  0
 16 34  1  0  0  0
 17 28  1  0  0  0
 18 19  2  0  0  0
 18 23  1  0  0  0
 19 20  1  0  0  0
 20 21  2  0  0  0
 21 22  1  0  0  0
 22 23  2  0  0  0
 23 26  1  0  0  0
 24 25  2  0  0  0
 24 29  1  0  0  0
 25 26  1  0  0  0
 26 27  2  0  0  0
 27 28  1  0  0  0
 28 29  2  0  0  0
M  END
>  <CHROM.0>
-176.57491443,-60.67265851,174.32323612,37.09888781,-67.70140803,-43.19168381
-25.55697788,-110.52324728,-170.52572477

>  <CHROM.1>
-35.27758037,107.23522543,170.25505328,94.85961993,52.70796468,-96.39055130
162.39045394,153.15297870,-128.12364187,-4.07026562,10.27127585,6.12450015
27.17050678,-1.59524609,0.36762488,2.10109311

>  <FORMUL>
      4PP    C23 H24 N4 O2

>  <HET>
 4PP  C 500      29

>  <HETNAM>
     4PP (2S)-(3'-AMIDINO-3-BIPHENYL)-5-(4-PYRIDYLAMINO)PENTANOI
   2 4PP C ACID

>  <Name>
4PP.pdb

>  <RI>
0

>  <Rbt.Current_Directory>
/home/malgorzata/Desktop/rDOCK_IFD/test7

>  <Rbt.Executable>
rbdock ($Id: //depot/dev/client3/rdock/2013.1/src/exe/rbdock.cxx#4 $)

>  <Rbt.Library>
libRbt.so (2013.1, Build901 2013/11/27)

>  <Rbt.Parameter_File>
/home/malgorzata/Desktop/rDock_2013.1_src/data/scripts/soft_docking.prm

>  <Rbt.Receptor>
cavity.prm

>  <SCORE>
-40.9141

>  <SCORE.INTER>
-48.0578

>  <SCORE.INTER.CONST>
1

>  <SCORE.INTER.POLAR>
-2.08002

>  <SCORE.INTER.REPUL>
0.354051

>  <SCORE.INTER.ROT>
9

>  <SCORE.INTER.VDW>
-57.156

>  <SCORE.INTER.norm>
-1.65716

>  <SCORE.INTRA>
4.18275

>  <SCORE.INTRA.DIHEDRAL>
3.67035

>  <SCORE.INTRA.DIHEDRAL.0>
20.1331

>  <SCORE.INTRA.POLAR>
0

>  <SCORE.INTRA.POLAR.0>
0

>  <SCORE.INTRA.REPUL>
0

>  <SCORE.INTRA.REPUL.0>
0

>  <SCORE.INTRA.VDW>
3.44868

>  <SCORE.INTRA.VDW.0>
0.0644272

>  <SCORE.INTRA.norm>
0.144233

>  <SCORE.RESTR>
2.89034

>  <SCORE.RESTR.CAVITY>
2.89034

>  <SCORE.RESTR.norm>
0.099667

>  <SCORE.SYSTEM>
0.0705363

>  <SCORE.SYSTEM.CONST>
0

>  <SCORE.SYSTEM.DIHEDRAL>
9.32183

>  <SCORE.SYSTEM.POLAR>
-1.37218

>  <SCORE.SYSTEM.REPUL>
0.657809

>  <SCORE.SYSTEM.VDW>
-3.214

>  <SCORE.SYSTEM.norm>
0.00243229

>  <SCORE.heavy>
29

>  <SCORE.norm>
-1.41083

$$$$
4PP.pdb
  rDOCK(R)          3D
libRbt.so/2013.1/901 2013/11/27
 34 36  0  0  0  0  0  0  0  0999 V2000
    9.2250    9.8592   22.3654 C   0  0  0  0  0  0
    8.8362   11.0035   22.0933 O   0  0  0  0  0  0
   10.5316    9.6383   22.7080 O   0  0  0  0  0  0
    4.4094   10.2475   17.1579 N   0  0  0  0  0  0
    4.0982   10.8085   18.4121 C   0  0  0  0  0  0
    4.2222   10.0237   19.5772 C   0  0  0  0  0  0
    4.6536    8.6841   19.4890 C   0  0  0  0  0  0
    4.9688    8.1225   18.2198 C   0  0  0  0  0  0
    4.8451    8.9064   17.0638 C   0  0  0  0  0  0
    4.7671    7.8957   20.7446 N   0  0  0  0  0  0
    8.2150    8.6948   22.3227 C   0  0  0  0  0  0
    8.4113    7.8442   21.0652 C   0  0  0  0  0  0
    7.1470    7.9788   20.2222 C   0  0  0  0  0  0
    6.0327    7.1351   20.8311 C   0  0  0  0  0  0
   15.9098    6.3762   25.9783 N   0  0  0  0  0  0
   14.7856    7.3146   24.2234 N   0  0  0  0  0  0
   14.7924    6.8455   25.4551 C   0  0  0  0  0  0
    8.5460    6.2495   25.9491 C   0  0  0  0  0  0
    7.3245    6.3016   25.2231 C   0  0  0  0  0  0
    7.2314    7.0958   24.0508 C   0  0  0  0  0  0
    8.3561    7.8446   23.5958 C   0  0  0  0  0  0
    9.5895    7.7978   24.3241 C   0  0  0  0  0  0
    9.6877    6.9984   25.5038 C   0  0  0  0  0  0
   12.2792    6.8325   28.4244 C   0  0  0  0  0  0
   11.0363    6.8892   27.7286 C   0  0  0  0  0  0
   11.0217    6.9328   26.2978 C   0  0  0  0  0  0
   12.2492    6.9195   25.5850 C   0  0  0  0  0  0
   13.4866    6.8607   26.2723 C   0  0  0  0  0  0
   13.5059    6.8183   27.6947 C   0  0  0  0  0  0
   11.1983   10.2295   22.4181 H   0  0  0  0  0  0
    4.0739    7.8815   21.4436 H   0  0  0  0  0  0
   16.7384    6.3715   25.4466 H   0  0  0  0  0  0
   15.6134    7.3106   23.6905 H   0  0  0  0  0  0
   13.9527    7.6690   23.8362 H   0  0  0  0  0  0
  1  2  2  0  0  0
  1  3  1  0  0  0
  1 11  1  0  0  0
  3 30  1  0  0  0
  4  5  2  0  0  0
  4  9  1  0  0  0
  5  6  1  0  0  0
  6  7  2  0  0  0
  7  8  1  0  0  0
  7 10  1  0  0  0
  8  9  2  0  0  0
 10 14  1  0  0  0
 10 31  1  0  0  0
 11 12  1  0  0  0
 11 21  1  0  0  0
 12 13  1  0  0  0
 13 14  1  0  0  0
 15 17  2  0  0  0
 15 32  1  0  0  0
 16 17  1  0  0  0
 16 33  1  0  0  0
 16 34  1  0  0  0
 17 28  1  0  0  0
 18 19  2  0  0  0
 18 23  1  0  0  0
 19 20  1  0  0  0
 20 21  2  0  0  0
 21 22  1  0  0  0
 22 23  2  0  0  0
 23 26  1  0  0  0
 24 25  2  0  0  0
 24 29  1  0  0  0
 25 26  1  0  0  0
 26 27  2  0  0  0
 27 28  1  0  0  0
 28 29  2  0  0  0
M  END
>  <CHROM.0>
16.54820301,-60.67265851,133.49280003,175.90051224,65.17478228,-88.70667217
-156.11344848,-145.30361490,0.66598915

>  <CHROM.1>
-24.78346294,104.11344219,-133.91615236,37.03463718,-115.56767715,154.18100607
-76.17643805,139.59328361,-158.34799966,-38.33638933,9.00000000,8.00000000
23.00000000,-2.39082614,0.13741193,2.01869001

>  <FORMUL>
      4PP    C23 H24 N4 O2

>  <HET>
 4PP  C 500      29

>  <HETNAM>
     4PP (2S)-(3'-AMIDINO-3-BIPHENYL)-5-(4-PYRIDYLAMINO)PENTANOI
   2 4PP C ACID

>  <Name>
4PP.pdb

>  <RI>
0

>  <Rbt.Current_Directory>
/home/malgorzata/Desktop/rDOCK_IFD/test7

>  <Rbt.Executable>
rbdock ($Id: //depot/dev/client3/rdock/2013.1/src/exe/rbdock.cxx#4 $)

>  <Rbt.Library>
libRbt.so (2013.1, Build901 2013/11/27)

>  <Rbt.Parameter_File>
/home/malgorzata/Desktop/rDock_2013.1_src/data/scripts/soft_docking.prm

>  <Rbt.Receptor>
cavity.prm

>  <SCORE>
-20.4186

>  <SCORE.INTER>
-21.0137

>  <SCORE.INTER.CONST>
1

>  <SCORE.INTER.POLAR>
-1.64942

>  <SCORE.INTER.REPUL>
0

>  <SCORE.INTER.ROT>
9

>  <SCORE.INTER.VDW>
-29.8056

>  <SCORE.INTER.norm>
-0.724609

>  <SCORE.INTRA>
3.3609

>  <SCORE.INTRA.DIHEDRAL>
8.56127

>  <SCORE.INTRA.DIHEDRAL.0>
20.1331

>  <SCORE.INTRA.POLAR>
0

>  <SCORE.INTRA.POLAR.0>
0

>  <SCORE.INTRA.REPUL>
0

>  <SCORE.INTRA.REPUL.0>
0

>  <SCORE.INTRA.VDW>
1.64865

>  <SCORE.INTRA.VDW.0>
0.0644272

>  <SCORE.INTRA.norm>
0.115893

>  <SCORE.RESTR>
1.28139

>  <SCORE.RESTR.CAVITY>
1.28139

>  <SCORE.RESTR.norm>
0.0441859

>  <SCORE.SYSTEM>
-4.04724

>  <SCORE.SYSTEM.CONST>
0

>  <SCORE.SYSTEM.DIHEDRAL>
8.77243

>  <SCORE.SYSTEM.POLAR>
-3.71541

>  <SCORE.SYSTEM.REPUL>
1.44291

>  <SCORE.SYSTEM.VDW>
-3.01559

>  <SCORE.SYSTEM.norm>
-0.13956

>  <SCORE.heavy>
29

>  <SCORE.norm>
-0.70409

$$$$
4PP.pdb
  rDOCK(R)          3D
libRbt.so/2013.1/901 2013/11/27
 34 36  0  0  0  0  0  0  0  0999 V2000
    7.5614    8.8629   23.1119 C   0  0  0  0  0  0
    7.8079   10.0049   23.5239 O   0  0  0  0  0  0
    6.6229    8.0906   23.7413 O   0  0  0  0  0  0
   10.5295    6.5302   28.2914 N   0  0  0  0  0  0
    9.9096    7.7890   28.4158 C   0  0  0  0  0  0
    9.7844    8.6196   27.2829 C   0  0  0  0  0  0
   10.2779    8.1946   26.0322 C   0  0  0  0  0  0
   10.9017    6.9210   25.9114 C   0  0  0  0  0  0
   11.0234    6.0977   27.0399 C   0  0  0  0  0  0
   10.1247    9.1057   24.8671 N   0  0  0  0  0  0
    8.3178    8.3323   21.8774 C   0  0  0  0  0  0
    9.7004    7.8031   22.2669 C   0  0  0  0  0  0
   10.6075    9.0111   22.4792 C   0  0  0  0  0  0
   11.2136    8.9576   23.8771 C   0  0  0  0  0  0
    9.3898    1.6274   16.9864 N   0  0  0  0  0  0
    8.6118   -0.4134   17.6606 N   0  0  0  0  0  0
    8.8183    0.8660   17.9010 C   0  0  0  0  0  0
    5.8753    5.2739   19.8976 C   0  0  0  0  0  0
    5.4636    6.6350   19.9014 C   0  0  0  0  0  0
    6.2639    7.6145   20.5445 C   0  0  0  0  0  0
    7.4796    7.2425   21.1897 C   0  0  0  0  0  0
    7.8991    5.8721   21.1910 C   0  0  0  0  0  0
    7.0971    4.8832   20.5435 C   0  0  0  0  0  0
    7.9687    1.2465   21.6781 C   0  0  0  0  0  0
    7.5486    2.6078   21.7263 C   0  0  0  0  0  0
    7.5449    3.3954   20.5309 C   0  0  0  0  0  0
    7.9616    2.8104   19.3065 C   0  0  0  0  0  0
    8.3776    1.4573   19.2535 C   0  0  0  0  0  0
    8.3839    0.6708   20.4397 C   0  0  0  0  0  0
    6.0702    8.4668   24.3977 H   0  0  0  0  0  0
    9.3783    9.7396   24.7656 H   0  0  0  0  0  0
    9.6673    1.2385   16.1256 H   0  0  0  0  0  0
    8.8887   -0.8036   16.8002 H   0  0  0  0  0  0
    8.1807   -0.9789   18.3416 H   0  0  0  0  0  0
  1  2  2  0  0  0
  1  3  1  0  0  0
  1 11  1  0  0  0
  3 30  1  0  0  0
  4  5  2  0  0  0
  4  9  1  0  0  0
  5  6  1  0  0  0
  6  7  2  0  0  0
  7  8  1  0  0  0
  7 10  1  0  0  0
  8  9  2  0  0  0
 10 14  1  0  0  0
 10 31  1  0  0  0
 11 12  1  0  0  0
 11 21  1  0  0  0
 12 13  1  0  0  0
 13 14  1  0  0  0
 15 17  2  0  0  0
 15 32  1  0  0  0
 16 17  1  0  0  0
 16 33  1  0  0  0
 16 34  1  0  0  0
 17 28  1  0  0  0
 18 19  2  0  0  0
 18 23  1  0  0  0
 19 20  1  0  0  0
 20 21  2  0  0  0
 21 22  1  0  0  0
 22 23  2  0  0  0
 23 26  1  0  0  0
 24 25  2  0  0  0
 24 29  1  0  0  0
 25 26  1  0  0  0
 26 27  2  0  0  0
 27 28  1  0  0  0
 28 29  2  0  0  0
M  END
>  <CHROM.0>
11.61356792,-60.67265851,-70.86686811,-165.38942600,175.09409045,-98.24979306
-6.75148533,-124.68402988,62.43349290

>  <CHROM.1>
9.61876022,81.56546295,149.28368081,138.81457032,-77.08113147,68.14915486
124.11357917,-65.37607076,31.05631247,-111.10963117,8.59902043,5.77072117
22.33798927,1.23964921,-1.00381047,0.51706971

>  <FORMUL>
      4PP    C23 H24 N4 O2

>  <HET>
 4PP  C 500      29

>  <HETNAM>
     4PP (2S)-(3'-AMIDINO-3-BIPHENYL)-5-(4-PYRIDYLAMINO)PENTANOI
   2 4PP C ACID

>  <Name>
4PP.pdb

>  <RI>
0

>  <Rbt.Current_Directory>
/home/malgorzata/Desktop/rDOCK_IFD/test7

>  <Rbt.Executable>
rbdock ($Id: //depot/dev/client3/rdock/2013.1/src/exe/rbdock.cxx#4 $)

>  <Rbt.Library>
libRbt.so (2013.1, Build901 2013/11/27)

>  <Rbt.Parameter_File>
/home/malgorzata/Desktop/rDock_2013.1_src/data/scripts/soft_docking.prm

>  <Rbt.Receptor>
cavity.prm

>  <SCORE>
-25.4028

>  <SCORE.INTER>
-21.468

>  <SCORE.INTER.CONST>
1

>  <SCORE.INTER.POLAR>
-0.25799

>  <SCORE.INTER.REPUL>
0.415039

>  <SCORE.INTER.ROT>
9

>  <SCORE.INTER.VDW>
-37.0661

>  <SCORE.INTER.norm>
-0.740277

>  <SCORE.INTRA>
-1.05668

>  <SCORE.INTRA.DIHEDRAL>
3.74021

>  <SCORE.INTRA.DIHEDRAL.0>
20.1331

>  <SCORE.INTRA.POLAR>
0

>  <SCORE.INTRA.POLAR.0>
0

>  <SCORE.INTRA.REPUL>
0

>  <SCORE.INTRA.REPUL.0>
0

>  <SCORE.INTRA.VDW>
-1.80472

>  <SCORE.INTRA.VDW.0>
0.0644272

>  <SCORE.INTRA.norm>
-0.0364373

>  <SCORE.RESTR>
0.0363993

>  <SCORE.RESTR.CAVITY>
0.0363993

>  <SCORE.RESTR.norm>
0.00125515

>  <SCORE.SYSTEM>
-2.91448

>  <SCORE.SYSTEM.CONST>
0

>  <SCORE.SYSTEM.DIHEDRAL>
14.895

>  <SCORE.SYSTEM.POLAR>
-2.68667

>  <SCORE.SYSTEM.REPUL>
0.657809

>  <SCORE.SYSTEM.VDW>
-4.51631

>  <SCORE.SYSTEM.norm>
-0.100499

>  <SCORE.heavy>
29

>  <SCORE.norm>
-0.875959

$$$$
