4PP.pdb
  rDOCK(R)          3D
libRbt.so/2013.1/901 2013/11/27
 34 36  0  0  0  0  0  0  0  0999 V2000
    4.1931   20.3126   17.9376 C   0  0  0  0  0  0
    4.4013   21.3807   17.3457 O   0  0  0  0  0  0
    3.5233   20.3051   19.1312 O   0  0  0  0  0  0
    1.5967   16.1869   23.3595 N   0  0  0  0  0  0
    1.6739   16.2752   21.9557 C   0  0  0  0  0  0
    2.8607   16.7378   21.3503 C   0  0  0  0  0  0
    3.9643   17.1119   22.1443 C   0  0  0  0  0  0
    3.8820   17.0191   23.5622 C   0  0  0  0  0  0
    2.7006   16.5577   24.1603 C   0  0  0  0  0  0
    5.1931   17.5955   21.4608 N   0  0  0  0  0  0
    4.6889   18.9966   17.3051 C   0  0  0  0  0  0
    4.5088   17.8221   18.2703 C   0  0  0  0  0  0
    5.7852   17.7133   19.0987 C   0  0  0  0  0  0
    5.5511   16.7791   20.2805 C   0  0  0  0  0  0
    6.6248   23.2393   12.2545 N   0  0  0  0  0  0
    5.8222   24.0698   10.2820 N   0  0  0  0  0  0
    5.7058   23.2492   11.3068 C   0  0  0  0  0  0
    2.5419   18.2221   13.5594 C   0  0  0  0  0  0
    2.5069   17.2756   14.6200 C   0  0  0  0  0  0
    3.2050   17.5393   15.8270 C   0  0  0  0  0  0
    3.9440   18.7484   15.9834 C   0  0  0  0  0  0
    3.9847   19.7055   14.9175 C   0  0  0  0  0  0
    3.2822   19.4446   13.7015 C   0  0  0  0  0  0
    2.3109   21.5148   10.5323 C   0  0  0  0  0  0
    2.2489   20.5563   11.5856 C   0  0  0  0  0  0
    3.3118   20.4779   12.5414 C   0  0  0  0  0  0
    4.4198   21.3580   12.4292 C   0  0  0  0  0  0
    4.4844   22.3137   11.3855 C   0  0  0  0  0  0
    3.4305   22.3946   10.4324 C   0  0  0  0  0  0
    3.2866   21.1140   19.5407 H   0  0  0  0  0  0
    5.7129   18.3756   21.7618 H   0  0  0  0  0  0
    7.4012   23.8416   12.1936 H   0  0  0  0  0  0
    6.5980   24.6727   10.2199 H   0  0  0  0  0  0
    5.1335   24.0798    9.5787 H   0  0  0  0  0  0
  1  2  2  0  0  0
  1  3  1  0  0  0
  1 11  1  0  0  0
  3 30  1  0  0  0
  4  5  2  0  0  0
  4  9  1  0  0  0
  5  6  1  0  0  0
  6  7  2  0  0  0
  7  8  1  0  0  0
  7 10  1  0  0  0
  8  9  2  0  0  0
 10 14  1  0  0  0
 10 31  1  0  0  0
 11 12  1  0  0  0
 11 21  1  0  0  0
 12 13  1  0  0  0
 13 14  1  0  0  0
 15 17  2  0  0  0
 15 32  1  0  0  0
 16 17  1  0  0  0
 16 33  1  0  0  0
 16 34  1  0  0  0
 17 28  1  0  0  0
 18 19  2  0  0  0
 18 23  1  0  0  0
 19 20  1  0  0  0
 20 21  2  0  0  0
 21 22  1  0  0  0
 22 23  2  0  0  0
 23 26  1  0  0  0
 24 25  2  0  0  0
 24 29  1  0  0  0
 25 26  1  0  0  0
 26 27  2  0  0  0
 27 28  1  0  0  0
 28 29  2  0  0  0
M  END
>  <CHROM.0>
-62.59174626,53.57396213,90.04864695

>  <CHROM.1>
-5.36571418,172.20724136,-43.36879976,129.79018326,-90.01395218,-122.26712583
167.22325481,-95.44304054,-5.50645654,26.01251736,3.91400167,19.38281201
16.56203837,-1.67093097,-0.75302199,-1.19206538

>  <FORMUL>
      4PP    C23 H24 N4 O2

>  <HET>
 4PP  C 500      29

>  <HETNAM>
     4PP (2S)-(3'-AMIDINO-3-BIPHENYL)-5-(4-PYRIDYLAMINO)PENTANOI
   2 4PP C ACID

>  <Name>
4PP.pdb

>  <RI>
0

>  <Rbt.Current_Directory>
/home/malgorzata/Desktop/rDOCK_IFD/Wyniki/7a_factor_Xa

>  <Rbt.Executable>
rbdock ($Id: //depot/dev/client3/rdock/2013.1/src/exe/rbdock.cxx#4 $)

>  <Rbt.Library>
libRbt.so (2013.1, Build901 2013/11/27)

>  <Rbt.Parameter_File>
/home/malgorzata/Desktop/rDock_2013.1_src/data/scripts/soft_docking.prm

>  <Rbt.Receptor>
cavity.prm

>  <SCORE>
-26.4432

>  <SCORE.INTER>
-25.9949

>  <SCORE.INTER.CONST>
1

>  <SCORE.INTER.POLAR>
-3.77202

>  <SCORE.INTER.REPUL>
0.386908

>  <SCORE.INTER.ROT>
9

>  <SCORE.INTER.VDW>
-29.5046

>  <SCORE.INTER.norm>
-0.896377

>  <SCORE.INTRA>
0.335

>  <SCORE.INTRA.DIHEDRAL>
-0.617056

>  <SCORE.INTRA.DIHEDRAL.0>
20.1331

>  <SCORE.INTRA.POLAR>
0

>  <SCORE.INTRA.POLAR.0>
0

>  <SCORE.INTRA.REPUL>
0

>  <SCORE.INTRA.REPUL.0>
0

>  <SCORE.INTRA.VDW>
0.458412

>  <SCORE.INTRA.VDW.0>
0.0644272

>  <SCORE.INTRA.norm>
0.0115517

>  <SCORE.RESTR>
0

>  <SCORE.RESTR.CAVITY>
0

>  <SCORE.RESTR.norm>
0

>  <SCORE.SYSTEM>
-0.783247

>  <SCORE.SYSTEM.CONST>
0

>  <SCORE.SYSTEM.DIHEDRAL>
1.19846

>  <SCORE.SYSTEM.VDW>
-1.38248

>  <SCORE.SYSTEM.norm>
-0.0270085

>  <SCORE.heavy>
29

>  <SCORE.norm>
-0.911834

$$$$
4PP.pdb
  rDOCK(R)          3D
libRbt.so/2013.1/901 2013/11/27
 34 36  0  0  0  0  0  0  0  0999 V2000
    4.8059   22.0798   13.1738 C   0  0  0  0  0  0
    4.5455   23.0669   12.4720 O   0  0  0  0  0  0
    6.0629   21.9124   13.6888 O   0  0  0  0  0  0
    4.7985   14.1509   13.3102 N   0  0  0  0  0  0
    5.8484   14.2570   12.3769 C   0  0  0  0  0  0
    6.0357   15.4641   11.6722 C   0  0  0  0  0  0
    5.1767   16.5593   11.8980 C   0  0  0  0  0  0
    4.1186   16.4478   12.8434 C   0  0  0  0  0  0
    3.9362   15.2462   13.5428 C   0  0  0  0  0  0
    5.4124   17.8105   11.1299 N   0  0  0  0  0  0
    3.6928   21.0532   13.4652 C   0  0  0  0  0  0
    4.0405   19.6846   12.8743 C   0  0  0  0  0  0
    4.0811   19.8402   11.3572 C   0  0  0  0  0  0
    4.1569   18.4655   10.7027 C   0  0  0  0  0  0
    3.5764   18.2888   22.2920 N   0  0  0  0  0  0
    3.9438   16.0458   22.0504 N   0  0  0  0  0  0
    3.9983   17.2703   21.5658 C   0  0  0  0  0  0
    2.9951   20.8508   17.7909 C   0  0  0  0  0  0
    2.3921   21.8748   17.0100 C   0  0  0  0  0  0
    2.6252   21.9279   15.6113 C   0  0  0  0  0  0
    3.4628   20.9607   14.9824 C   0  0  0  0  0  0
    4.0750   19.9273   15.7642 C   0  0  0  0  0  0
    3.8417   19.8694   17.1723 C   0  0  0  0  0  0
    6.1459   16.9366   18.3394 C   0  0  0  0  0  0
    5.5744   17.9581   17.5258 C   0  0  0  0  0  0
    4.4930   18.7493   18.0297 C   0  0  0  0  0  0
    3.9994   18.5067   19.3384 C   0  0  0  0  0  0
    4.5659   17.4942   20.1513 C   0  0  0  0  0  0
    5.6405   16.7046   19.6540 C   0  0  0  0  0  0
    6.7237   22.5577   13.5309 H   0  0  0  0  0  0
    6.3082   18.1649   10.9273 H   0  0  0  0  0  0
    3.2156   18.1337   23.1948 H   0  0  0  0  0  0
    3.5833   15.8892   22.9530 H   0  0  0  0  0  0
    4.2636   15.2877   21.5097 H   0  0  0  0  0  0
  1  2  2  0  0  0
  1  3  1  0  0  0
  1 11  1  0  0  0
  3 30  1  0  0  0
  4  5  2  0  0  0
  4  9  1  0  0  0
  5  6  1  0  0  0
  6  7  2  0  0  0
  7  8  1  0  0  0
  7 10  1  0  0  0
  8  9  2  0  0  0
 10 14  1  0  0  0
 10 31  1  0  0  0
 11 12  1  0  0  0
 11 21  1  0  0  0
 12 13  1  0  0  0
 13 14  1  0  0  0
 15 17  2  0  0  0
 15 32  1  0  0  0
 16 17  1  0  0  0
 16 33  1  0  0  0
 16 34  1  0  0  0
 17 28  1  0  0  0
 18 19  2  0  0  0
 18 23  1  0  0  0
 19 20  1  0  0  0
 20 21  2  0  0  0
 21 22  1  0  0  0
 22 23  2  0  0  0
 23 26  1  0  0  0
 24 25  2  0  0  0
 24 29  1  0  0  0
 25 26  1  0  0  0
 26 27  2  0  0  0
 27 28  1  0  0  0
 28 29  2  0  0  0
M  END
>  <CHROM.0>
-21.07443281,-117.89813168,-136.77207082

>  <CHROM.1>
1.70386733,116.75756156,141.03235999,117.68113489,-64.60566119,82.64863005
-169.19996738,-62.19074258,-35.79361643,-164.99348496,4.43322625,18.62997112
15.54262262,1.25131768,1.36075741,-1.14352773

>  <FORMUL>
      4PP    C23 H24 N4 O2

>  <HET>
 4PP  C 500      29

>  <HETNAM>
     4PP (2S)-(3'-AMIDINO-3-BIPHENYL)-5-(4-PYRIDYLAMINO)PENTANOI
   2 4PP C ACID

>  <Name>
4PP.pdb

>  <RI>
0

>  <Rbt.Current_Directory>
/home/malgorzata/Desktop/rDOCK_IFD/Wyniki/7a_factor_Xa

>  <Rbt.Executable>
rbdock ($Id: //depot/dev/client3/rdock/2013.1/src/exe/rbdock.cxx#4 $)

>  <Rbt.Library>
libRbt.so (2013.1, Build901 2013/11/27)

>  <Rbt.Parameter_File>
/home/malgorzata/Desktop/rDock_2013.1_src/data/scripts/soft_docking.prm

>  <Rbt.Receptor>
cavity.prm

>  <SCORE>
-10.6978

>  <SCORE.INTER>
-10.0295

>  <SCORE.INTER.CONST>
1

>  <SCORE.INTER.POLAR>
-0.534485

>  <SCORE.INTER.REPUL>
0.369688

>  <SCORE.INTER.ROT>
9

>  <SCORE.INTER.VDW>
-24.4607

>  <SCORE.INTER.norm>
-0.345846

>  <SCORE.INTRA>
-2.24129

>  <SCORE.INTRA.DIHEDRAL>
-5.86727

>  <SCORE.INTRA.DIHEDRAL.0>
20.1331

>  <SCORE.INTRA.POLAR>
0

>  <SCORE.INTRA.POLAR.0>
0

>  <SCORE.INTRA.REPUL>
0

>  <SCORE.INTRA.REPUL.0>
0

>  <SCORE.INTRA.VDW>
-1.06784

>  <SCORE.INTRA.VDW.0>
0.0644272

>  <SCORE.INTRA.norm>
-0.077286

>  <SCORE.RESTR>
2.12186

>  <SCORE.RESTR.CAVITY>
0.424373

>  <SCORE.RESTR.norm>
0.0731677

>  <SCORE.SYSTEM>
-0.548853

>  <SCORE.SYSTEM.CONST>
0

>  <SCORE.SYSTEM.DIHEDRAL>
1.19957

>  <SCORE.SYSTEM.VDW>
-1.14864

>  <SCORE.SYSTEM.norm>
-0.018926

>  <SCORE.heavy>
29

>  <SCORE.norm>
-0.368891

$$$$
4PP.pdb
  rDOCK(R)          3D
libRbt.so/2013.1/901 2013/11/27
 34 36  0  0  0  0  0  0  0  0999 V2000
    4.4818   20.7866   18.5151 C   0  0  0  0  0  0
    4.5617   20.4287   19.6984 O   0  0  0  0  0  0
    3.5765   21.7438   18.1440 O   0  0  0  0  0  0
    3.3036   15.7504   23.3327 N   0  0  0  0  0  0
    4.2061   16.8208   23.4877 C   0  0  0  0  0  0
    5.2106   17.0316   22.5205 C   0  0  0  0  0  0
    5.3134   16.1756   21.4047 C   0  0  0  0  0  0
    4.3979   15.0966   21.2517 C   0  0  0  0  0  0
    3.4000   14.8909   22.2150 C   0  0  0  0  0  0
    6.3898   16.4364   20.4126 N   0  0  0  0  0  0
    5.4220   20.1469   17.4738 C   0  0  0  0  0  0
    5.3440   18.6192   17.5296 C   0  0  0  0  0  0
    6.2104   18.1611   18.6987 C   0  0  0  0  0  0
    5.8650   16.7206   19.0592 C   0  0  0  0  0  0
   -1.9428   18.2411   13.8726 N   0  0  0  0  0  0
   -1.7876   20.4795   14.3085 N   0  0  0  0  0  0
   -1.2766   19.3783   13.7953 C   0  0  0  0  0  0
    4.4695   21.6896   13.4797 C   0  0  0  0  0  0
    5.5566   22.2288   14.2210 C   0  0  0  0  0  0
    5.8546   21.7196   15.5116 C   0  0  0  0  0  0
    5.0691   20.6701   16.0720 C   0  0  0  0  0  0
    3.9709   20.1237   15.3307 C   0  0  0  0  0  0
    3.6685   20.6324   14.0306 C   0  0  0  0  0  0
    1.5566   19.0457   11.1505 C   0  0  0  0  0  0
    2.6653   19.5777   11.8716 C   0  0  0  0  0  0
    2.4857   20.0431   13.2134 C   0  0  0  0  0  0
    1.2012   19.9699   13.8132 C   0  0  0  0  0  0
    0.0972   19.4397   13.1011 C   0  0  0  0  0  0
    0.2709   18.9769   11.7665 C   0  0  0  0  0  0
    3.5664   22.5732   18.5800 H   0  0  0  0  0  0
    7.3492   16.4215   20.6330 H   0  0  0  0  0  0
   -2.8200   18.2138   14.3186 H   0  0  0  0  0  0
   -2.6648   20.4537   14.7548 H   0  0  0  0  0  0
   -1.2921   21.3279   14.2456 H   0  0  0  0  0  0
  1  2  2  0  0  0
  1  3  1  0  0  0
  1 11  1  0  0  0
  3 30  1  0  0  0
  4  5  2  0  0  0
  4  9  1  0  0  0
  5  6  1  0  0  0
  6  7  2  0  0  0
  7  8  1  0  0  0
  7 10  1  0  0  0
  8  9  2  0  0  0
 10 14  1  0  0  0
 10 31  1  0  0  0
 11 12  1  0  0  0
 11 21  1  0  0  0
 12 13  1  0  0  0
 13 14  1  0  0  0
 15 17  2  0  0  0
 15 32  1  0  0  0
 16 17  1  0  0  0
 16 33  1  0  0  0
 16 34  1  0  0  0
 17 28  1  0  0  0
 18 19  2  0  0  0
 18 23  1  0  0  0
 19 20  1  0  0  0
 20 21  2  0  0  0
 21 22  1  0  0  0
 22 23  2  0  0  0
 23 26  1  0  0  0
 24 25  2  0  0  0
 24 29  1  0  0  0
 25 26  1  0  0  0
 26 27  2  0  0  0
 27 28  1  0  0  0
 28 29  2  0  0  0
M  END
>  <CHROM.0>
159.07760802,56.31654908,43.56058832

>  <CHROM.1>
53.99686694,52.74513968,-119.34720816,114.64797131,-80.07254331,99.38663469
163.71638102,-162.91643413,-125.70853983,52.28395459,3.41804366,19.01049174
16.94260611,-1.14186881,-0.44357731,-1.00432165

>  <FORMUL>
      4PP    C23 H24 N4 O2

>  <HET>
 4PP  C 500      29

>  <HETNAM>
     4PP (2S)-(3'-AMIDINO-3-BIPHENYL)-5-(4-PYRIDYLAMINO)PENTANOI
   2 4PP C ACID

>  <Name>
4PP.pdb

>  <RI>
0

>  <Rbt.Current_Directory>
/home/malgorzata/Desktop/rDOCK_IFD/Wyniki/7a_factor_Xa

>  <Rbt.Executable>
rbdock ($Id: //depot/dev/client3/rdock/2013.1/src/exe/rbdock.cxx#4 $)

>  <Rbt.Library>
libRbt.so (2013.1, Build901 2013/11/27)

>  <Rbt.Parameter_File>
/home/malgorzata/Desktop/rDock_2013.1_src/data/scripts/soft_docking.prm

>  <Rbt.Receptor>
cavity.prm

>  <SCORE>
-15.5789

>  <SCORE.INTER>
-17.8557

>  <SCORE.INTER.CONST>
1

>  <SCORE.INTER.POLAR>
-3.53969

>  <SCORE.INTER.REPUL>
0

>  <SCORE.INTER.ROT>
9

>  <SCORE.INTER.VDW>
-20.2208

>  <SCORE.INTER.norm>
-0.615715

>  <SCORE.INTRA>
2.42585

>  <SCORE.INTRA.DIHEDRAL>
25.228

>  <SCORE.INTRA.DIHEDRAL.0>
20.1331

>  <SCORE.INTRA.POLAR>
0

>  <SCORE.INTRA.POLAR.0>
0

>  <SCORE.INTRA.REPUL>
0

>  <SCORE.INTRA.REPUL.0>
0

>  <SCORE.INTRA.VDW>
-2.61975

>  <SCORE.INTRA.VDW.0>
0.0644272

>  <SCORE.INTRA.norm>
0.0836498

>  <SCORE.RESTR>
1.11327

>  <SCORE.RESTR.CAVITY>
0.222654

>  <SCORE.RESTR.norm>
0.0383886

>  <SCORE.SYSTEM>
-1.26229

>  <SCORE.SYSTEM.CONST>
0

>  <SCORE.SYSTEM.DIHEDRAL>
1.19978

>  <SCORE.SYSTEM.VDW>
-1.86218

>  <SCORE.SYSTEM.norm>
-0.0435273

>  <SCORE.heavy>
29

>  <SCORE.norm>
-0.537203

$$$$
4PP.pdb
  rDOCK(R)          3D
libRbt.so/2013.1/901 2013/11/27
 34 36  0  0  0  0  0  0  0  0999 V2000
    2.5996   13.5248   17.3180 C   0  0  0  0  0  0
    1.4161   13.7293   17.6213 O   0  0  0  0  0  0
    3.0142   12.2684   16.9674 O   0  0  0  0  0  0
    3.9029   16.9392   23.7956 N   0  0  0  0  0  0
    4.8833   15.9333   23.9017 C   0  0  0  0  0  0
    5.7445   15.6813   22.8137 C   0  0  0  0  0  0
    5.6251   16.4302   21.6248 C   0  0  0  0  0  0
    4.6341   17.4468   21.5233 C   0  0  0  0  0  0
    3.7805   17.6949   22.6077 C   0  0  0  0  0  0
    6.5541   16.1270   20.5041 N   0  0  0  0  0  0
    3.5912   14.7056   17.3312 C   0  0  0  0  0  0
    4.9334   14.2880   17.9374 C   0  0  0  0  0  0
    4.9150   14.6932   19.4080 C   0  0  0  0  0  0
    6.3434   14.7785   19.9341 C   0  0  0  0  0  0
    3.1167   20.0690    9.8667 N   0  0  0  0  0  0
    4.2843   21.9506   10.4333 N   0  0  0  0  0  0
    3.6843   20.8306   10.7836 C   0  0  0  0  0  0
    4.1163   16.1689   13.2297 C   0  0  0  0  0  0
    4.2087   14.7794   13.5173 C   0  0  0  0  0  0
    4.0355   14.3194   14.8485 C   0  0  0  0  0  0
    3.7705   15.2427   15.9020 C   0  0  0  0  0  0
    3.6781   16.6445   15.6189 C   0  0  0  0  0  0
    3.8503   17.1116   14.2800 C   0  0  0  0  0  0
    3.5325   20.9874   14.6677 C   0  0  0  0  0  0
    3.6308   19.6045   14.9995 C   0  0  0  0  0  0
    3.7445   18.6281   13.9587 C   0  0  0  0  0  0
    3.7576   19.0490   12.6031 C   0  0  0  0  0  0
    3.6627   20.4223   12.2689 C   0  0  0  0  0  0
    3.5485   21.3964   13.3003 C   0  0  0  0  0  0
    2.7947   11.9205   16.1256 H   0  0  0  0  0  0
    7.2366   16.7565   20.1766 H   0  0  0  0  0  0
    3.1368   20.3400    8.9205 H   0  0  0  0  0  0
    4.3051   22.2228    9.4874 H   0  0  0  0  0  0
    4.7116   22.5150   11.1175 H   0  0  0  0  0  0
  1  2  2  0  0  0
  1  3  1  0  0  0
  1 11  1  0  0  0
  3 30  1  0  0  0
  4  5  2  0  0  0
  4  9  1  0  0  0
  5  6  1  0  0  0
  6  7  2  0  0  0
  7  8  1  0  0  0
  7 10  1  0  0  0
  8  9  2  0  0  0
 10 14  1  0  0  0
 10 31  1  0  0  0
 11 12  1  0  0  0
 11 21  1  0  0  0
 12 13  1  0  0  0
 13 14  1  0  0  0
 15 17  2  0  0  0
 15 32  1  0  0  0
 16 17  1  0  0  0
 16 33  1  0  0  0
 16 34  1  0  0  0
 17 28  1  0  0  0
 18 19  2  0  0  0
 18 23  1  0  0  0
 19 20  1  0  0  0
 20 21  2  0  0  0
 21 22  1  0  0  0
 22 23  2  0  0  0
 23 26  1  0  0  0
 24 25  2  0  0  0
 24 29  1  0  0  0
 25 26  1  0  0  0
 26 27  2  0  0  0
 27 28  1  0  0  0
 28 29  2  0  0  0
M  END
>  <CHROM.0>
16.27365749,26.99174811,172.23820070

>  <CHROM.1>
74.94861329,138.55713156,65.94606079,60.01913766,-96.24523620,-48.76146154
-159.60307034,124.45385301,35.39285192,-172.87641317,4.08239408,16.90015265
16.67964944,1.06615211,1.36528825,2.49557800

>  <FORMUL>
      4PP    C23 H24 N4 O2

>  <HET>
 4PP  C 500      29

>  <HETNAM>
     4PP (2S)-(3'-AMIDINO-3-BIPHENYL)-5-(4-PYRIDYLAMINO)PENTANOI
   2 4PP C ACID

>  <Name>
4PP.pdb

>  <RI>
0

>  <Rbt.Current_Directory>
/home/malgorzata/Desktop/rDOCK_IFD/Wyniki/7a_factor_Xa

>  <Rbt.Executable>
rbdock ($Id: //depot/dev/client3/rdock/2013.1/src/exe/rbdock.cxx#4 $)

>  <Rbt.Library>
libRbt.so (2013.1, Build901 2013/11/27)

>  <Rbt.Parameter_File>
/home/malgorzata/Desktop/rDock_2013.1_src/data/scripts/soft_docking.prm

>  <Rbt.Receptor>
cavity.prm

>  <SCORE>
-15.7526

>  <SCORE.INTER>
-19.7566

>  <SCORE.INTER.CONST>
1

>  <SCORE.INTER.POLAR>
-2.063

>  <SCORE.INTER.REPUL>
0

>  <SCORE.INTER.ROT>
9

>  <SCORE.INTER.VDW>
-27.1424

>  <SCORE.INTER.norm>
-0.681263

>  <SCORE.INTRA>
4.27726

>  <SCORE.INTRA.DIHEDRAL>
31.3016

>  <SCORE.INTRA.DIHEDRAL.0>
20.1331

>  <SCORE.INTRA.POLAR>
0

>  <SCORE.INTRA.POLAR.0>
0

>  <SCORE.INTRA.REPUL>
0

>  <SCORE.INTRA.REPUL.0>
0

>  <SCORE.INTRA.VDW>
-1.98307

>  <SCORE.INTRA.VDW.0>
0.0644272

>  <SCORE.INTRA.norm>
0.147492

>  <SCORE.RESTR>
0

>  <SCORE.RESTR.CAVITY>
0

>  <SCORE.RESTR.norm>
0

>  <SCORE.SYSTEM>
-0.273222

>  <SCORE.SYSTEM.CONST>
0

>  <SCORE.SYSTEM.DIHEDRAL>
1.19788

>  <SCORE.SYSTEM.VDW>
-0.872163

>  <SCORE.SYSTEM.norm>
-0.00942146

>  <SCORE.heavy>
29

>  <SCORE.norm>
-0.543193

$$$$
4PP.pdb
  rDOCK(R)          3D
libRbt.so/2013.1/901 2013/11/27
 34 36  0  0  0  0  0  0  0  0999 V2000
    5.0293   20.7211   17.6195 C   0  0  0  0  0  0
    4.2556   20.7423   18.5867 O   0  0  0  0  0  0
    5.7240   21.8467   17.2676 O   0  0  0  0  0  0
    3.3079   16.1179   24.4868 N   0  0  0  0  0  0
    4.4585   15.7031   23.7878 C   0  0  0  0  0  0
    4.8083   16.3410   22.5797 C   0  0  0  0  0  0
    4.0109   17.3873   22.0719 C   0  0  0  0  0  0
    2.8505   17.8041   22.7829 C   0  0  0  0  0  0
    2.5066   17.1679   23.9843 C   0  0  0  0  0  0
    4.4188   18.0281   20.7937 N   0  0  0  0  0  0
    5.2044   19.4089   16.8288 C   0  0  0  0  0  0
    4.5347   18.2384   17.5532 C   0  0  0  0  0  0
    5.5032   17.7532   18.6274 C   0  0  0  0  0  0
    4.7290   17.0447   19.7333 C   0  0  0  0  0  0
    6.7141   15.9066    8.1936 N   0  0  0  0  0  0
    6.3084   18.1525    8.3202 N   0  0  0  0  0  0
    6.1110   16.9295    8.7704 C   0  0  0  0  0  0
    3.5596   19.9736   12.8019 C   0  0  0  0  0  0
    3.4960   21.0218   13.7608 C   0  0  0  0  0  0
    4.0331   20.8261   15.0596 C   0  0  0  0  0  0
    4.6359   19.5829   15.4111 C   0  0  0  0  0  0
    4.7014   18.5219   14.4498 C   0  0  0  0  0  0
    4.1633   18.7153   13.1408 C   0  0  0  0  0  0
    3.5609   15.3500   11.2474 C   0  0  0  0  0  0
    3.4676   16.3762   12.2325 C   0  0  0  0  0  0
    4.2353   17.5758   12.0871 C   0  0  0  0  0  0
    5.0843   17.7306   10.9600 C   0  0  0  0  0  0
    5.1782   16.7145    9.9774 C   0  0  0  0  0  0
    4.4176   15.5198   10.1184 C   0  0  0  0  0  0
    5.9573   22.4766   17.9208 H   0  0  0  0  0  0
    4.4762   19.0027   20.6667 H   0  0  0  0  0  0
    7.3081   16.0561    7.4229 H   0  0  0  0  0  0
    6.9021   18.3035    7.5496 H   0  0  0  0  0  0
    5.8620   18.9150    8.7545 H   0  0  0  0  0  0
  1  2  2  0  0  0
  1  3  1  0  0  0
  1 11  1  0  0  0
  3 30  1  0  0  0
  4  5  2  0  0  0
  4  9  1  0  0  0
  5  6  1  0  0  0
  6  7  2  0  0  0
  7  8  1  0  0  0
  7 10  1  0  0  0
  8  9  2  0  0  0
 10 14  1  0  0  0
 10 31  1  0  0  0
 11 12  1  0  0  0
 11 21  1  0  0  0
 12 13  1  0  0  0
 13 14  1  0  0  0
 15 17  2  0  0  0
 15 32  1  0  0  0
 16 17  1  0  0  0
 16 33  1  0  0  0
 16 34  1  0  0  0
 17 28  1  0  0  0
 18 19  2  0  0  0
 18 23  1  0  0  0
 19 20  1  0  0  0
 20 21  2  0  0  0
 21 22  1  0  0  0
 22 23  2  0  0  0
 23 26  1  0  0  0
 24 25  2  0  0  0
 24 29  1  0  0  0
 25 26  1  0  0  0
 26 27  2  0  0  0
 27 28  1  0  0  0
 28 29  2  0  0  0
M  END
>  <CHROM.0>
65.20407908,38.79395057,-154.79641484

>  <CHROM.1>
29.34984082,-9.93920596,48.53354735,-163.95320841,-81.91313070,-1.75425698
155.88577219,-93.42858610,148.57668676,-111.55785273,4.55077387,18.08679871
16.00648646,-2.75633308,-1.46466002,-2.76558679

>  <FORMUL>
      4PP    C23 H24 N4 O2

>  <HET>
 4PP  C 500      29

>  <HETNAM>
     4PP (2S)-(3'-AMIDINO-3-BIPHENYL)-5-(4-PYRIDYLAMINO)PENTANOI
   2 4PP C ACID

>  <Name>
4PP.pdb

>  <RI>
0

>  <Rbt.Current_Directory>
/home/malgorzata/Desktop/rDOCK_IFD/Wyniki/7a_factor_Xa

>  <Rbt.Executable>
rbdock ($Id: //depot/dev/client3/rdock/2013.1/src/exe/rbdock.cxx#4 $)

>  <Rbt.Library>
libRbt.so (2013.1, Build901 2013/11/27)

>  <Rbt.Parameter_File>
/home/malgorzata/Desktop/rDock_2013.1_src/data/scripts/soft_docking.prm

>  <Rbt.Receptor>
cavity.prm

>  <SCORE>
-19.5767

>  <SCORE.INTER>
-20.5176

>  <SCORE.INTER.CONST>
1

>  <SCORE.INTER.POLAR>
-2.04186

>  <SCORE.INTER.REPUL>
0.0571138

>  <SCORE.INTER.ROT>
9

>  <SCORE.INTER.VDW>
-28.2608

>  <SCORE.INTER.norm>
-0.707503

>  <SCORE.INTRA>
1.67419

>  <SCORE.INTRA.DIHEDRAL>
11.2151

>  <SCORE.INTRA.DIHEDRAL.0>
20.1331

>  <SCORE.INTRA.POLAR>
0

>  <SCORE.INTRA.POLAR.0>
0

>  <SCORE.INTRA.REPUL>
0

>  <SCORE.INTRA.REPUL.0>
0

>  <SCORE.INTRA.VDW>
-0.568836

>  <SCORE.INTRA.VDW.0>
0.0644272

>  <SCORE.INTRA.norm>
0.0577308

>  <SCORE.RESTR>
0

>  <SCORE.RESTR.CAVITY>
0

>  <SCORE.RESTR.norm>
0

>  <SCORE.SYSTEM>
-0.733335

>  <SCORE.SYSTEM.CONST>
0

>  <SCORE.SYSTEM.DIHEDRAL>
1.19746

>  <SCORE.SYSTEM.VDW>
-1.33206

>  <SCORE.SYSTEM.norm>
-0.0252874

>  <SCORE.heavy>
29

>  <SCORE.norm>
-0.67506

$$$$
4PP.pdb
  rDOCK(R)          3D
libRbt.so/2013.1/901 2013/11/27
 34 36  0  0  0  0  0  0  0  0999 V2000
    5.0837   20.2518   15.6587 C   0  0  0  0  0  0
    6.2240   20.5555   16.0357 O   0  0  0  0  0  0
    4.1307   21.2205   15.4957 O   0  0  0  0  0  0
    3.3152   15.4165   23.4316 N   0  0  0  0  0  0
    4.6900   15.2102   23.2041 C   0  0  0  0  0  0
    5.2652   15.6252   21.9851 C   0  0  0  0  0  0
    4.4695   16.2419   20.9977 C   0  0  0  0  0  0
    3.0813   16.4498   21.2331 C   0  0  0  0  0  0
    2.5135   16.0366   22.4468 C   0  0  0  0  0  0
    5.1202   16.6605   19.7279 N   0  0  0  0  0  0
    4.7604   18.7726   15.3668 C   0  0  0  0  0  0
    3.9016   18.1687   16.4808 C   0  0  0  0  0  0
    4.8046   17.9668   17.6936 C   0  0  0  0  0  0
    4.1446   16.9982   18.6686 C   0  0  0  0  0  0
    6.7873   18.2057    6.1033 N   0  0  0  0  0  0
    4.6918   19.0558    6.4363 N   0  0  0  0  0  0
    5.6757   18.2638    6.8130 C   0  0  0  0  0  0
    2.7041   18.4798   11.5034 C   0  0  0  0  0  0
    2.0709   19.1058   12.6121 C   0  0  0  0  0  0
    2.7479   19.1948   13.8560 C   0  0  0  0  0  0
    4.0608   18.6586   14.0026 C   0  0  0  0  0  0
    4.7036   18.0248   12.8895 C   0  0  0  0  0  0
    4.0261   17.9344   11.6352 C   0  0  0  0  0  0
    5.8109   15.3161    9.3480 C   0  0  0  0  0  0
    5.1802   15.9045   10.4829 C   0  0  0  0  0  0
    4.7154   17.2570   10.4186 C   0  0  0  0  0  0
    4.8887   18.0001    9.2216 C   0  0  0  0  0  0
    5.5128   17.4186    8.0906 C   0  0  0  0  0  0
    5.9773   16.0746    8.1503 C   0  0  0  0  0  0
    3.4453   21.1025   14.8678 H   0  0  0  0  0  0
    6.0959   16.7078   19.6053 H   0  0  0  0  0  0
    6.8801   18.7505    5.2886 H   0  0  0  0  0  0
    4.7833   19.6012    5.6218 H   0  0  0  0  0  0
    3.8654   19.1021    6.9694 H   0  0  0  0  0  0
  1  2  2  0  0  0
  1  3  1  0  0  0
  1 11  1  0  0  0
  3 30  1  0  0  0
  4  5  2  0  0  0
  4  9  1  0  0  0
  5  6  1  0  0  0
  6  7  2  0  0  0
  7  8  1  0  0  0
  7 10  1  0  0  0
  8  9  2  0  0  0
 10 14  1  0  0  0
 10 31  1  0  0  0
 11 12  1  0  0  0
 11 21  1  0  0  0
 12 13  1  0  0  0
 13 14  1  0  0  0
 15 17  2  0  0  0
 15 32  1  0  0  0
 16 17  1  0  0  0
 16 33  1  0  0  0
 16 34  1  0  0  0
 17 28  1  0  0  0
 18 19  2  0  0  0
 18 23  1  0  0  0
 19 20  1  0  0  0
 20 21  2  0  0  0
 21 22  1  0  0  0
 22 23  2  0  0  0
 23 26  1  0  0  0
 24 25  2  0  0  0
 24 29  1  0  0  0
 25 26  1  0  0  0
 26 27  2  0  0  0
 27 28  1  0  0  0
 28 29  2  0  0  0
M  END
>  <CHROM.0>
99.42306583,124.07595027,116.08749050

>  <CHROM.1>
151.31347959,105.46103299,166.66993055,154.85992146,-73.39059796,-67.96845517
-162.77565307,171.50434184,139.38804012,-122.83382840,4.53364707,17.72949262
14.50445482,1.93365121,-1.32539740,2.02945283

>  <FORMUL>
      4PP    C23 H24 N4 O2

>  <HET>
 4PP  C 500      29

>  <HETNAM>
     4PP (2S)-(3'-AMIDINO-3-BIPHENYL)-5-(4-PYRIDYLAMINO)PENTANOI
   2 4PP C ACID

>  <Name>
4PP.pdb

>  <RI>
0

>  <Rbt.Current_Directory>
/home/malgorzata/Desktop/rDOCK_IFD/Wyniki/7a_factor_Xa

>  <Rbt.Executable>
rbdock ($Id: //depot/dev/client3/rdock/2013.1/src/exe/rbdock.cxx#4 $)

>  <Rbt.Library>
libRbt.so (2013.1, Build901 2013/11/27)

>  <Rbt.Parameter_File>
/home/malgorzata/Desktop/rDock_2013.1_src/data/scripts/soft_docking.prm

>  <Rbt.Receptor>
cavity.prm

>  <SCORE>
-15.5298

>  <SCORE.INTER>
-14.2203

>  <SCORE.INTER.CONST>
1

>  <SCORE.INTER.POLAR>
-2.78466

>  <SCORE.INTER.REPUL>
0.0811134

>  <SCORE.INTER.ROT>
9

>  <SCORE.INTER.VDW>
-19.558

>  <SCORE.INTER.norm>
-0.490354

>  <SCORE.INTRA>
0.0538398

>  <SCORE.INTRA.DIHEDRAL>
0.777951

>  <SCORE.INTRA.DIHEDRAL.0>
20.1331

>  <SCORE.INTRA.POLAR>
0

>  <SCORE.INTRA.POLAR.0>
0

>  <SCORE.INTRA.REPUL>
0

>  <SCORE.INTRA.REPUL.0>
0

>  <SCORE.INTRA.VDW>
-0.10175

>  <SCORE.INTRA.VDW.0>
0.0644272

>  <SCORE.INTRA.norm>
0.00185654

>  <SCORE.RESTR>
0

>  <SCORE.RESTR.CAVITY>
0

>  <SCORE.RESTR.norm>
0

>  <SCORE.SYSTEM>
-1.36332

>  <SCORE.SYSTEM.CONST>
0

>  <SCORE.SYSTEM.DIHEDRAL>
1.19978

>  <SCORE.SYSTEM.VDW>
-1.96321

>  <SCORE.SYSTEM.norm>
-0.0470111

>  <SCORE.heavy>
29

>  <SCORE.norm>
-0.535509

$$$$
4PP.pdb
  rDOCK(R)          3D
libRbt.so/2013.1/901 2013/11/27
 34 36  0  0  0  0  0  0  0  0999 V2000
    3.3916   16.3336   23.6033 C   0  0  0  0  0  0
    3.7142   15.1465   23.4569 O   0  0  0  0  0  0
    3.5613   16.9498   24.8136 O   0  0  0  0  0  0
    2.4771   23.5641   18.1697 N   0  0  0  0  0  0
    2.6985   22.1729   18.1777 C   0  0  0  0  0  0
    1.9756   21.3570   19.0724 C   0  0  0  0  0  0
    1.0372   21.9291   19.9560 C   0  0  0  0  0  0
    0.8158   23.3350   19.9426 C   0  0  0  0  0  0
    1.5359   24.1427   19.0509 C   0  0  0  0  0  0
    0.3007   21.0287   20.8822 N   0  0  0  0  0  0
    2.8085   17.1050   22.4023 C   0  0  0  0  0  0
    2.1161   18.3911   22.8603 C   0  0  0  0  0  0
    1.6134   19.1078   21.6109 C   0  0  0  0  0  0
    1.1512   20.5136   21.9773 C   0  0  0  0  0  0
    2.0576   15.2888   14.0149 N   0  0  0  0  0  0
    3.2910   14.0105   15.4534 N   0  0  0  0  0  0
    2.9565   15.1930   14.9770 C   0  0  0  0  0  0
    6.0482   17.9772   19.5767 C   0  0  0  0  0  0
    6.2893   17.9931   20.9780 C   0  0  0  0  0  0
    5.2325   17.7079   21.8811 C   0  0  0  0  0  0
    3.9276   17.4064   21.3922 C   0  0  0  0  0  0
    3.6777   17.3906   19.9811 C   0  0  0  0  0  0
    4.7391   17.6757   19.0686 C   0  0  0  0  0  0
    4.5954   18.7062   15.3016 C   0  0  0  0  0  0
    4.8481   18.7596   16.7036 C   0  0  0  0  0  0
    4.4832   17.6538   17.5363 C   0  0  0  0  0  0
    3.8711   16.5125   16.9550 C   0  0  0  0  0  0
    3.6203   16.4541   15.5620 C   0  0  0  0  0  0
    3.9805   17.5516   14.7305 C   0  0  0  0  0  0
    4.3672   16.8502   25.2812 H   0  0  0  0  0  0
   -0.6511   20.7999   20.7777 H   0  0  0  0  0  0
    1.6400   14.4760   13.6487 H   0  0  0  0  0  0
    2.8742   13.1968   15.0882 H   0  0  0  0  0  0
    3.9578   13.9409   16.1744 H   0  0  0  0  0  0
  1  2  2  0  0  0
  1  3  1  0  0  0
  1 11  1  0  0  0
  3 30  1  0  0  0
  4  5  2  0  0  0
  4  9  1  0  0  0
  5  6  1  0  0  0
  6  7  2  0  0  0
  7  8  1  0  0  0
  7 10  1  0  0  0
  8  9  2  0  0  0
 10 14  1  0  0  0
 10 31  1  0  0  0
 11 12  1  0  0  0
 11 21  1  0  0  0
 12 13  1  0  0  0
 13 14  1  0  0  0
 15 17  2  0  0  0
 15 32  1  0  0  0
 16 17  1  0  0  0
 16 33  1  0  0  0
 16 34  1  0  0  0
 17 28  1  0  0  0
 18 19  2  0  0  0
 18 23  1  0  0  0
 19 20  1  0  0  0
 20 21  2  0  0  0
 21 22  1  0  0  0
 22 23  2  0  0  0
 23 26  1  0  0  0
 24 25  2  0  0  0
 24 29  1  0  0  0
 25 26  1  0  0  0
 26 27  2  0  0  0
 27 28  1  0  0  0
 28 29  2  0  0  0
M  END
>  <CHROM.0>
176.65125879,90.29880809,131.50073029

>  <CHROM.1>
46.10366833,163.93635220,72.53005627,-98.91508856,178.16445179,-35.88651945
-169.37022943,-162.70031412,141.28855373,-52.42749207,3.16865518,18.48080040
19.38076904,-2.13552812,1.22738644,-1.53121536

>  <FORMUL>
      4PP    C23 H24 N4 O2

>  <HET>
 4PP  C 500      29

>  <HETNAM>
     4PP (2S)-(3'-AMIDINO-3-BIPHENYL)-5-(4-PYRIDYLAMINO)PENTANOI
   2 4PP C ACID

>  <Name>
4PP.pdb

>  <RI>
0

>  <Rbt.Current_Directory>
/home/malgorzata/Desktop/rDOCK_IFD/Wyniki/7a_factor_Xa

>  <Rbt.Executable>
rbdock ($Id: //depot/dev/client3/rdock/2013.1/src/exe/rbdock.cxx#4 $)

>  <Rbt.Library>
libRbt.so (2013.1, Build901 2013/11/27)

>  <Rbt.Parameter_File>
/home/malgorzata/Desktop/rDock_2013.1_src/data/scripts/soft_docking.prm

>  <Rbt.Receptor>
cavity.prm

>  <SCORE>
-11.7783

>  <SCORE.INTER>
-12.0301

>  <SCORE.INTER.CONST>
1

>  <SCORE.INTER.POLAR>
-2.36091

>  <SCORE.INTER.REPUL>
0

>  <SCORE.INTER.ROT>
9

>  <SCORE.INTER.VDW>
-18.403

>  <SCORE.INTER.norm>
-0.414829

>  <SCORE.INTRA>
1.52116

>  <SCORE.INTRA.DIHEDRAL>
18.4307

>  <SCORE.INTRA.DIHEDRAL.0>
20.1331

>  <SCORE.INTRA.POLAR>
0

>  <SCORE.INTRA.POLAR.0>
0

>  <SCORE.INTRA.REPUL>
0

>  <SCORE.INTRA.REPUL.0>
0

>  <SCORE.INTRA.VDW>
-2.16498

>  <SCORE.INTRA.VDW.0>
0.0644272

>  <SCORE.INTRA.norm>
0.0524538

>  <SCORE.RESTR>
0

>  <SCORE.RESTR.CAVITY>
0

>  <SCORE.RESTR.norm>
0

>  <SCORE.SYSTEM>
-1.26944

>  <SCORE.SYSTEM.CONST>
0

>  <SCORE.SYSTEM.DIHEDRAL>
1.20249

>  <SCORE.SYSTEM.VDW>
-1.87069

>  <SCORE.SYSTEM.norm>
-0.0437739

>  <SCORE.heavy>
29

>  <SCORE.norm>
-0.406149

$$$$
4PP.pdb
  rDOCK(R)          3D
libRbt.so/2013.1/901 2013/11/27
 34 36  0  0  0  0  0  0  0  0999 V2000
    5.0198   19.2640   16.7471 C   0  0  0  0  0  0
    3.9911   18.6449   16.4418 O   0  0  0  0  0  0
    5.9610   19.5488   15.7950 O   0  0  0  0  0  0
    0.0173   26.3336   20.3415 N   0  0  0  0  0  0
    0.3721   25.3984   21.3335 C   0  0  0  0  0  0
    1.0268   24.2050   20.9646 C   0  0  0  0  0  0
    1.3239   23.9469   19.6105 C   0  0  0  0  0  0
    0.9651   24.8958   18.6122 C   0  0  0  0  0  0
    0.3151   26.0816   18.9832 C   0  0  0  0  0  0
    2.0133   22.6742   19.2700 N   0  0  0  0  0  0
    5.2166   19.7156   18.2082 C   0  0  0  0  0  0
    3.9739   20.4412   18.7302 C   0  0  0  0  0  0
    3.8664   21.7621   17.9746 C   0  0  0  0  0  0
    3.4406   22.8680   18.9337 C   0  0  0  0  0  0
    0.2754   16.8129   24.4452 N   0  0  0  0  0  0
    0.9642   18.9728   24.1539 N   0  0  0  0  0  0
    1.2407   17.6861   24.2248 C   0  0  0  0  0  0
    6.2296   16.2135   20.6472 C   0  0  0  0  0  0
    6.8201   16.3960   19.3665 C   0  0  0  0  0  0
    6.4845   17.5342   18.5884 C   0  0  0  0  0  0
    5.5562   18.4972   19.0819 C   0  0  0  0  0  0
    4.9562   18.3179   20.3710 C   0  0  0  0  0  0
    5.2924   17.1743   21.1582 C   0  0  0  0  0  0
    4.7723   16.2048   24.9081 C   0  0  0  0  0  0
    5.3902   16.3771   23.6351 C   0  0  0  0  0  0
    4.6550   16.9727   22.5607 C   0  0  0  0  0  0
    3.3141   17.3861   22.7753 C   0  0  0  0  0  0
    2.6969   17.2191   24.0395 C   0  0  0  0  0  0
    3.4237   16.6265   25.1102 C   0  0  0  0  0  0
    6.8081   19.8568   16.0510 H   0  0  0  0  0  0
    1.5674   21.7964   19.2686 H   0  0  0  0  0  0
   -0.6516   17.1230   24.5621 H   0  0  0  0  0  0
    0.0376   19.2843   24.2706 H   0  0  0  0  0  0
    1.6842   19.6225   23.9843 H   0  0  0  0  0  0
  1  2  2  0  0  0
  1  3  1  0  0  0
  1 11  1  0  0  0
  3 30  1  0  0  0
  4  5  2  0  0  0
  4  9  1  0  0  0
  5  6  1  0  0  0
  6  7  2  0  0  0
  7  8  1  0  0  0
  7 10  1  0  0  0
  8  9  2  0  0  0
 10 14  1  0  0  0
 10 31  1  0  0  0
 11 12  1  0  0  0
 11 21  1  0  0  0
 12 13  1  0  0  0
 13 14  1  0  0  0
 15 17  2  0  0  0
 15 32  1  0  0  0
 16 17  1  0  0  0
 16 33  1  0  0  0
 16 34  1  0  0  0
 17 28  1  0  0  0
 18 19  2  0  0  0
 18 23  1  0  0  0
 19 20  1  0  0  0
 20 21  2  0  0  0
 21 22  1  0  0  0
 22 23  2  0  0  0
 23 26  1  0  0  0
 24 25  2  0  0  0
 24 29  1  0  0  0
 25 26  1  0  0  0
 26 27  2  0  0  0
 27 28  1  0  0  0
 28 29  2  0  0  0
M  END
>  <CHROM.0>
-25.54992184,90.51127863,91.61534408

>  <CHROM.1>
-167.52039585,-49.73126545,-105.28588574,-151.94059400,-68.14607796,42.94952921
-139.62134048,-72.74418034,113.37845849,34.58357378,3.40862978,19.83411316
20.52198347,-2.12267371,-0.84664213,2.31810097

>  <FORMUL>
      4PP    C23 H24 N4 O2

>  <HET>
 4PP  C 500      29

>  <HETNAM>
     4PP (2S)-(3'-AMIDINO-3-BIPHENYL)-5-(4-PYRIDYLAMINO)PENTANOI
   2 4PP C ACID

>  <Name>
4PP.pdb

>  <RI>
0

>  <Rbt.Current_Directory>
/home/malgorzata/Desktop/rDOCK_IFD/Wyniki/7a_factor_Xa

>  <Rbt.Executable>
rbdock ($Id: //depot/dev/client3/rdock/2013.1/src/exe/rbdock.cxx#4 $)

>  <Rbt.Library>
libRbt.so (2013.1, Build901 2013/11/27)

>  <Rbt.Parameter_File>
/home/malgorzata/Desktop/rDock_2013.1_src/data/scripts/soft_docking.prm

>  <Rbt.Receptor>
cavity.prm

>  <SCORE>
-9.37753

>  <SCORE.INTER>
-13.0324

>  <SCORE.INTER.CONST>
1

>  <SCORE.INTER.POLAR>
-0.267246

>  <SCORE.INTER.REPUL>
0

>  <SCORE.INTER.ROT>
9

>  <SCORE.INTER.VDW>
-26.5237

>  <SCORE.INTER.norm>
-0.449392

>  <SCORE.INTRA>
2.03015

>  <SCORE.INTRA.DIHEDRAL>
16.1252

>  <SCORE.INTRA.DIHEDRAL.0>
20.1331

>  <SCORE.INTRA.POLAR>
0

>  <SCORE.INTRA.POLAR.0>
0

>  <SCORE.INTRA.REPUL>
0

>  <SCORE.INTRA.REPUL.0>
0

>  <SCORE.INTRA.VDW>
-1.19488

>  <SCORE.INTRA.VDW.0>
0.0644272

>  <SCORE.INTRA.norm>
0.0700053

>  <SCORE.RESTR>
2.51547

>  <SCORE.RESTR.CAVITY>
0.503094

>  <SCORE.RESTR.norm>
0.0867404

>  <SCORE.SYSTEM>
-0.890779

>  <SCORE.SYSTEM.CONST>
0

>  <SCORE.SYSTEM.DIHEDRAL>
1.20178

>  <SCORE.SYSTEM.VDW>
-1.49167

>  <SCORE.SYSTEM.norm>
-0.0307165

>  <SCORE.heavy>
29

>  <SCORE.norm>
-0.323363

$$$$
4PP.pdb
  rDOCK(R)          3D
libRbt.so/2013.1/901 2013/11/27
 34 36  0  0  0  0  0  0  0  0999 V2000
    6.6668   18.6430   16.6065 C   0  0  0  0  0  0
    7.1773   18.1850   17.6382 O   0  0  0  0  0  0
    7.4080   19.4181   15.7561 O   0  0  0  0  0  0
    3.4220   15.2340   23.0340 N   0  0  0  0  0  0
    4.7495   15.2048   22.5634 C   0  0  0  0  0  0
    5.2896   16.3425   21.9288 C   0  0  0  0  0  0
    4.5060   17.5032   21.7638 C   0  0  0  0  0  0
    3.1659   17.5284   22.2427 C   0  0  0  0  0  0
    2.6329   16.3955   22.8740 C   0  0  0  0  0  0
    5.1182   18.6771   21.0869 N   0  0  0  0  0  0
    5.1927   18.3178   16.2920 C   0  0  0  0  0  0
    4.2715   18.8113   17.4106 C   0  0  0  0  0  0
    4.7801   18.2113   18.7177 C   0  0  0  0  0  0
    4.3676   19.1010   19.8849 C   0  0  0  0  0  0
    7.6627   17.7272    7.6602 N   0  0  0  0  0  0
    6.0233   19.1755    6.9974 N   0  0  0  0  0  0
    6.4461   18.2200    7.8008 C   0  0  0  0  0  0
    4.0725   20.1529   12.4688 C   0  0  0  0  0  0
    4.0149   20.9049   13.6743 C   0  0  0  0  0  0
    4.3814   20.2993   14.9041 C   0  0  0  0  0  0
    4.8061   18.9388   14.9399 C   0  0  0  0  0  0
    4.8645   18.1750   13.7286 C   0  0  0  0  0  0
    4.4979   18.7814   12.4883 C   0  0  0  0  0  0
    3.8758   16.0540    9.7592 C   0  0  0  0  0  0
    3.7872   16.7784   10.9838 C   0  0  0  0  0  0
    4.5646   17.9665   11.1670 C   0  0  0  0  0  0
    5.4184   18.4115   10.1240 C   0  0  0  0  0  0
    5.5077   17.6961    8.9045 C   0  0  0  0  0  0
    4.7375   16.5139    8.7184 C   0  0  0  0  0  0
    7.0165   19.7687   14.9804 H   0  0  0  0  0  0
    5.9357   19.1242   21.4047 H   0  0  0  0  0  0
    8.2537   18.0698    6.9512 H   0  0  0  0  0  0
    6.6132   19.5190    6.2880 H   0  0  0  0  0  0
    5.1176   19.5456    7.1066 H   0  0  0  0  0  0
  1  2  2  0  0  0
  1  3  1  0  0  0
  1 11  1  0  0  0
  3 30  1  0  0  0
  4  5  2  0  0  0
  4  9  1  0  0  0
  5  6  1  0  0  0
  6  7  2  0  0  0
  7  8  1  0  0  0
  7 10  1  0  0  0
  8  9  2  0  0  0
 10 14  1  0  0  0
 10 31  1  0  0  0
 11 12  1  0  0  0
 11 21  1  0  0  0
 12 13  1  0  0  0
 13 14  1  0  0  0
 15 17  2  0  0  0
 15 32  1  0  0  0
 16 17  1  0  0  0
 16 33  1  0  0  0
 16 34  1  0  0  0
 17 28  1  0  0  0
 18 19  2  0  0  0
 18 23  1  0  0  0
 19 20  1  0  0  0
 20 21  2  0  0  0
 21 22  1  0  0  0
 22 23  2  0  0  0
 23 26  1  0  0  0
 24 25  2  0  0  0
 24 29  1  0  0  0
 25 26  1  0  0  0
 26 27  2  0  0  0
 27 28  1  0  0  0
 28 29  2  0  0  0
M  END
>  <CHROM.0>
-87.47391286,31.28204835,-165.42636294

>  <CHROM.1>
-179.47719051,59.39049972,121.93217332,-81.86385890,-54.48737858,-84.95095934
154.31635068,-167.36635313,96.96847638,-119.94246210,4.99883584,18.07176181
15.27208400,-1.78978458,-1.12887790,-1.69019897

>  <FORMUL>
      4PP    C23 H24 N4 O2

>  <HET>
 4PP  C 500      29

>  <HETNAM>
     4PP (2S)-(3'-AMIDINO-3-BIPHENYL)-5-(4-PYRIDYLAMINO)PENTANOI
   2 4PP C ACID

>  <Name>
4PP.pdb

>  <RI>
0

>  <Rbt.Current_Directory>
/home/malgorzata/Desktop/rDOCK_IFD/Wyniki/7a_factor_Xa

>  <Rbt.Executable>
rbdock ($Id: //depot/dev/client3/rdock/2013.1/src/exe/rbdock.cxx#4 $)

>  <Rbt.Library>
libRbt.so (2013.1, Build901 2013/11/27)

>  <Rbt.Parameter_File>
/home/malgorzata/Desktop/rDock_2013.1_src/data/scripts/soft_docking.prm

>  <Rbt.Receptor>
cavity.prm

>  <SCORE>
-11.1402

>  <SCORE.INTER>
-16.1531

>  <SCORE.INTER.CONST>
1

>  <SCORE.INTER.POLAR>
-2.14408

>  <SCORE.INTER.REPUL>
0

>  <SCORE.INTER.ROT>
9

>  <SCORE.INTER.VDW>
-23.2632

>  <SCORE.INTER.norm>
-0.557002

>  <SCORE.INTRA>
2.82945

>  <SCORE.INTRA.DIHEDRAL>
13.9532

>  <SCORE.INTRA.DIHEDRAL.0>
20.1331

>  <SCORE.INTRA.POLAR>
0

>  <SCORE.INTRA.POLAR.0>
0

>  <SCORE.INTRA.REPUL>
0

>  <SCORE.INTRA.REPUL.0>
0

>  <SCORE.INTRA.VDW>
0.038814

>  <SCORE.INTRA.VDW.0>
0.0644272

>  <SCORE.INTRA.norm>
0.0975673

>  <SCORE.RESTR>
2.76227

>  <SCORE.RESTR.CAVITY>
0.552453

>  <SCORE.RESTR.norm>
0.0952506

>  <SCORE.SYSTEM>
-0.578819

>  <SCORE.SYSTEM.CONST>
0

>  <SCORE.SYSTEM.DIHEDRAL>
1.19692

>  <SCORE.SYSTEM.VDW>
-1.17728

>  <SCORE.SYSTEM.norm>
-0.0199593

>  <SCORE.heavy>
29

>  <SCORE.norm>
-0.384143

$$$$
4PP.pdb
  rDOCK(R)          3D
libRbt.so/2013.1/901 2013/11/27
 34 36  0  0  0  0  0  0  0  0999 V2000
    4.3697   20.6245   20.2204 C   0  0  0  0  0  0
    4.8658   21.2306   21.1802 O   0  0  0  0  0  0
    3.1690   21.0242   19.6989 O   0  0  0  0  0  0
   -0.0281   14.7248   21.0544 N   0  0  0  0  0  0
    0.3405   15.7637   21.9315 C   0  0  0  0  0  0
    1.7060   16.0350   22.1564 C   0  0  0  0  0  0
    2.6983   15.2704   21.5090 C   0  0  0  0  0  0
    2.3208   14.2231   20.6222 C   0  0  0  0  0  0
    0.9620   13.9571   20.4006 C   0  0  0  0  0  0
    4.1246   15.5923   21.7790 N   0  0  0  0  0  0
    5.1287   19.4247   19.6188 C   0  0  0  0  0  0
    4.4274   18.1066   19.9565 C   0  0  0  0  0  0
    5.4885   17.1499   20.4915 C   0  0  0  0  0  0
    4.9238   15.7348   20.5425 C   0  0  0  0  0  0
    3.1017   24.3593   11.0886 N   0  0  0  0  0  0
    4.6423   22.6713   11.1312 N   0  0  0  0  0  0
    3.6746   23.3488   11.7159 C   0  0  0  0  0  0
    5.5623   19.9046   15.2804 C   0  0  0  0  0  0
    6.3992   19.0031   15.9937 C   0  0  0  0  0  0
    6.2475   18.8565   17.3970 C   0  0  0  0  0  0
    5.2608   19.6096   18.0983 C   0  0  0  0  0  0
    4.4155   20.5213   17.3854 C   0  0  0  0  0  0
    4.5640   20.6706   15.9725 C   0  0  0  0  0  0
    1.6154   23.0450   15.0023 C   0  0  0  0  0  0
    2.4327   22.1505   15.7533 C   0  0  0  0  0  0
    3.6483   21.6496   15.1869 C   0  0  0  0  0  0
    4.0277   22.0501   13.8789 C   0  0  0  0  0  0
    3.2197   22.9407   13.1300 C   0  0  0  0  0  0
    2.0099   23.4404   13.6887 C   0  0  0  0  0  0
    2.9666   21.9368   19.6348 H   0  0  0  0  0  0
    4.4972   15.6992   22.6840 H   0  0  0  0  0  0
    3.4007   24.6110   10.1851 H   0  0  0  0  0  0
    4.9422   22.9219   10.2276 H   0  0  0  0  0  0
    5.0651   21.9146   11.5980 H   0  0  0  0  0  0
  1  2  2  0  0  0
  1  3  1  0  0  0
  1 11  1  0  0  0
  3 30  1  0  0  0
  4  5  2  0  0  0
  4  9  1  0  0  0
  5  6  1  0  0  0
  6  7  2  0  0  0
  7  8  1  0  0  0
  7 10  1  0  0  0
  8  9  2  0  0  0
 10 14  1  0  0  0
 10 31  1  0  0  0
 11 12  1  0  0  0
 11 21  1  0  0  0
 12 13  1  0  0  0
 13 14  1  0  0  0
 15 17  2  0  0  0
 15 32  1  0  0  0
 16 17  1  0  0  0
 16 33  1  0  0  0
 16 34  1  0  0  0
 17 28  1  0  0  0
 18 19  2  0  0  0
 18 23  1  0  0  0
 19 20  1  0  0  0
 20 21  2  0  0  0
 21 22  1  0  0  0
 22 23  2  0  0  0
 23 26  1  0  0  0
 24 25  2  0  0  0
 24 29  1  0  0  0
 25 26  1  0  0  0
 26 27  2  0  0  0
 27 28  1  0  0  0
 28 29  2  0  0  0
M  END
>  <CHROM.0>
-88.90494421,-40.90798742,33.35492956

>  <CHROM.1>
38.09211575,108.55797628,-130.59192840,119.25326004,-131.16730078,161.37741435
-167.05655054,-81.69148567,-166.90084043,163.02084941,3.64281596,19.42794383
17.68397818,-1.66394889,-0.34293531,-0.89014615

>  <FORMUL>
      4PP    C23 H24 N4 O2

>  <HET>
 4PP  C 500      29

>  <HETNAM>
     4PP (2S)-(3'-AMIDINO-3-BIPHENYL)-5-(4-PYRIDYLAMINO)PENTANOI
   2 4PP C ACID

>  <Name>
4PP.pdb

>  <RI>
0

>  <Rbt.Current_Directory>
/home/malgorzata/Desktop/rDOCK_IFD/Wyniki/7a_factor_Xa

>  <Rbt.Executable>
rbdock ($Id: //depot/dev/client3/rdock/2013.1/src/exe/rbdock.cxx#4 $)

>  <Rbt.Library>
libRbt.so (2013.1, Build901 2013/11/27)

>  <Rbt.Parameter_File>
/home/malgorzata/Desktop/rDock_2013.1_src/data/scripts/soft_docking.prm

>  <Rbt.Receptor>
cavity.prm

>  <SCORE>
-13.1647

>  <SCORE.INTER>
-12.8284

>  <SCORE.INTER.CONST>
1

>  <SCORE.INTER.POLAR>
-0.725281

>  <SCORE.INTER.REPUL>
0.253515

>  <SCORE.INTER.ROT>
9

>  <SCORE.INTER.VDW>
-26.03

>  <SCORE.INTER.norm>
-0.442357

>  <SCORE.INTRA>
0.351099

>  <SCORE.INTRA.DIHEDRAL>
8.27107

>  <SCORE.INTRA.DIHEDRAL.0>
20.1331

>  <SCORE.INTRA.POLAR>
0

>  <SCORE.INTRA.POLAR.0>
0

>  <SCORE.INTRA.REPUL>
0

>  <SCORE.INTRA.REPUL.0>
0

>  <SCORE.INTRA.VDW>
-1.30311

>  <SCORE.INTRA.VDW.0>
0.0644272

>  <SCORE.INTRA.norm>
0.0121069

>  <SCORE.RESTR>
0.0019019

>  <SCORE.RESTR.CAVITY>
0.000380379

>  <SCORE.RESTR.norm>
6.55827e-05

>  <SCORE.SYSTEM>
-0.689311

>  <SCORE.SYSTEM.CONST>
0

>  <SCORE.SYSTEM.DIHEDRAL>
1.20212

>  <SCORE.SYSTEM.VDW>
-1.29037

>  <SCORE.SYSTEM.norm>
-0.0237693

>  <SCORE.heavy>
29

>  <SCORE.norm>
-0.453954

$$$$
