4PP.pdb
  rDOCK(R)          3D
libRbt.so/2013.1/901 2013/11/27
 34 36  0  0  0  0  0  0  0  0999 V2000
    4.8812    1.9373   22.2268 C   0  0  0  0  0  0
    4.1556    1.2228   22.9323 O   0  0  0  0  0  0
    5.9509    1.3949   21.5674 O   0  0  0  0  0  0
    8.4205    9.2815   21.7342 N   0  0  0  0  0  0
    8.4709    9.4125   23.1359 C   0  0  0  0  0  0
    8.0428    8.3449   23.9519 C   0  0  0  0  0  0
    7.5652    7.1528   23.3696 C   0  0  0  0  0  0
    7.5181    7.0246   21.9529 C   0  0  0  0  0  0
    7.9455    8.0880   21.1450 C   0  0  0  0  0  0
    7.1231    6.0556   24.2706 N   0  0  0  0  0  0
    4.5545    3.4385   22.0956 C   0  0  0  0  0  0
    5.6320    4.2950   22.7655 C   0  0  0  0  0  0
    4.9573    5.5700   23.2619 C   0  0  0  0  0  0
    5.6646    6.0691   24.5168 C   0  0  0  0  0  0
    9.1011   -0.7562   16.2744 N   0  0  0  0  0  0
    7.3164   -1.2398   17.6180 N   0  0  0  0  0  0
    7.9339   -0.4198   16.7913 C   0  0  0  0  0  0
    4.0576    4.5269   17.8756 C   0  0  0  0  0  0
    3.2809    5.1648   18.8815 C   0  0  0  0  0  0
    3.4526    4.8040   20.2431 C   0  0  0  0  0  0
    4.3992    3.8033   20.6103 C   0  0  0  0  0  0
    5.1838    3.1553   19.6010 C   0  0  0  0  0  0
    5.0151    3.5166   18.2294 C   0  0  0  0  0  0
    6.8116    2.7550   14.8433 C   0  0  0  0  0  0
    6.0268    3.4171   15.8321 C   0  0  0  0  0  0
    5.8653    2.8274   17.1265 C   0  0  0  0  0  0
    6.4902    1.5852   17.4122 C   0  0  0  0  0  0
    7.2731    0.9249   16.4334 C   0  0  0  0  0  0
    7.4355    1.5070   15.1449 C   0  0  0  0  0  0
    6.1066    0.4718   21.6068 H   0  0  0  0  0  0
    7.7356    5.3914   24.6615 H   0  0  0  0  0  0
    9.5139   -1.6183   16.5103 H   0  0  0  0  0  0
    7.7280   -2.1022   17.8548 H   0  0  0  0  0  0
    6.4436   -0.9900   17.9988 H   0  0  0  0  0  0
  1  2  2  0  0  0
  1  3  1  0  0  0
  1 11  1  0  0  0
  3 30  1  0  0  0
  4  5  2  0  0  0
  4  9  1  0  0  0
  5  6  1  0  0  0
  6  7  2  0  0  0
  7  8  1  0  0  0
  7 10  1  0  0  0
  8  9  2  0  0  0
 10 14  1  0  0  0
 10 31  1  0  0  0
 11 12  1  0  0  0
 11 21  1  0  0  0
 12 13  1  0  0  0
 13 14  1  0  0  0
 15 17  2  0  0  0
 15 32  1  0  0  0
 16 17  1  0  0  0
 16 33  1  0  0  0
 16 34  1  0  0  0
 17 28  1  0  0  0
 18 19  2  0  0  0
 18 23  1  0  0  0
 19 20  1  0  0  0
 20 21  2  0  0  0
 21 22  1  0  0  0
 22 23  2  0  0  0
 23 26  1  0  0  0
 24 25  2  0  0  0
 24 29  1  0  0  0
 25 26  1  0  0  0
 26 27  2  0  0  0
 27 28  1  0  0  0
 28 29  2  0  0  0
M  END
>  <CHROM.0>
-166.16079693,-60.67265851,50.68247290,34.30878558,165.61468055,-174.81258341
142.18914417,152.73245828,76.13307847

>  <CHROM.1>
3.69093747,112.45183974,95.22450442,73.91202093,-150.13962149,146.03444080
148.89236100,47.38893016,-146.97682167,18.84170185,6.23697570,3.89643849
20.13338172,1.57013629,1.04267335,0.80194383

>  <FORMUL>
      4PP    C23 H24 N4 O2

>  <HET>
 4PP  C 500      29

>  <HETNAM>
     4PP (2S)-(3'-AMIDINO-3-BIPHENYL)-5-(4-PYRIDYLAMINO)PENTANOI
   2 4PP C ACID

>  <Name>
4PP.pdb

>  <RI>
0

>  <Rbt.Current_Directory>
/home/malgorzata/Desktop/rDOCK_IFD/Wyniki/7a_factor_Xa

>  <Rbt.Executable>
rbdock ($Id: //depot/dev/client3/rdock/2013.1/src/exe/rbdock.cxx#4 $)

>  <Rbt.Library>
libRbt.so (2013.1, Build901 2013/11/27)

>  <Rbt.Parameter_File>
/home/malgorzata/Desktop/rDock_2013.1_src/data/scripts/soft_docking.prm

>  <Rbt.Receptor>
cavity.prm

>  <SCORE>
-14.7102

>  <SCORE.INTER>
-11.1857

>  <SCORE.INTER.CONST>
1

>  <SCORE.INTER.POLAR>
-0.0298528

>  <SCORE.INTER.REPUL>
0.215341

>  <SCORE.INTER.ROT>
9

>  <SCORE.INTER.VDW>
-26.5609

>  <SCORE.INTER.norm>
-0.385713

>  <SCORE.INTRA>
-0.101128

>  <SCORE.INTRA.DIHEDRAL>
7.3807

>  <SCORE.INTRA.DIHEDRAL.0>
20.1331

>  <SCORE.INTRA.POLAR>
0

>  <SCORE.INTRA.POLAR.0>
0

>  <SCORE.INTRA.REPUL>
0

>  <SCORE.INTRA.REPUL.0>
0

>  <SCORE.INTRA.VDW>
-1.57727

>  <SCORE.INTRA.VDW.0>
0.0644272

>  <SCORE.INTRA.norm>
-0.00348718

>  <SCORE.RESTR>
0

>  <SCORE.RESTR.CAVITY>
0

>  <SCORE.RESTR.norm>
0

>  <SCORE.SYSTEM>
-3.42344

>  <SCORE.SYSTEM.CONST>
0

>  <SCORE.SYSTEM.DIHEDRAL>
9.06

>  <SCORE.SYSTEM.POLAR>
-2.47139

>  <SCORE.SYSTEM.REPUL>
0.735602

>  <SCORE.SYSTEM.VDW>
-3.22873

>  <SCORE.SYSTEM.norm>
-0.11805

>  <SCORE.heavy>
29

>  <SCORE.norm>
-0.50725

$$$$
4PP.pdb
  rDOCK(R)          3D
libRbt.so/2013.1/901 2013/11/27
 34 36  0  0  0  0  0  0  0  0999 V2000
    4.4888    6.3896   22.0993 C   0  0  0  0  0  0
    4.4019    7.5300   21.6231 O   0  0  0  0  0  0
    3.3584    5.6943   22.4338 O   0  0  0  0  0  0
    0.6913    1.6184   22.8424 N   0  0  0  0  0  0
    1.1134    1.1150   21.5963 C   0  0  0  0  0  0
    2.4879    0.9095   21.3566 C   0  0  0  0  0  0
    3.4359    1.2073   22.3571 C   0  0  0  0  0  0
    3.0042    1.7139   23.6151 C   0  0  0  0  0  0
    1.6366    1.9160   23.8499 C   0  0  0  0  0  0
    4.8738    0.9759   22.0573 N   0  0  0  0  0  0
    5.8846    5.7651   22.2979 C   0  0  0  0  0  0
    6.0566    4.5182   21.4268 C   0  0  0  0  0  0
    5.3799    3.3590   22.1517 C   0  0  0  0  0  0
    5.4900    2.0932   21.3091 C   0  0  0  0  0  0
   10.6591    7.7203   28.1758 N   0  0  0  0  0  0
   12.5099    7.2522   26.9187 N   0  0  0  0  0  0
   11.3591    7.8773   27.0675 C   0  0  0  0  0  0
    8.9555    8.7468   21.3394 C   0  0  0  0  0  0
    8.1818    8.1502   20.3062 C   0  0  0  0  0  0
    7.1907    7.1878   20.6303 C   0  0  0  0  0  0
    6.9658    6.8129   21.9874 C   0  0  0  0  0  0
    7.7436    7.4092   23.0331 C   0  0  0  0  0  0
    8.7413    8.3795   22.7112 C   0  0  0  0  0  0
   10.6595   11.0112   24.8715 C   0  0  0  0  0  0
    9.8792   10.4403   23.8240 C   0  0  0  0  0  0
    9.5856    9.0392   23.8363 C   0  0  0  0  0  0
   10.0768    8.2308   24.8947 C   0  0  0  0  0  0
   10.8507    8.7944   25.9390 C   0  0  0  0  0  0
   11.1459   10.1867   25.9303 C   0  0  0  0  0  0
    3.0541    5.6929   23.3200 H   0  0  0  0  0  0
    5.3633    0.1657   22.3279 H   0  0  0  0  0  0
   10.9940    7.1317   28.8903 H   0  0  0  0  0  0
   12.8460    6.6632   27.6324 H   0  0  0  0  0  0
   13.0334    7.3742   26.0939 H   0  0  0  0  0  0
  1  2  2  0  0  0
  1  3  1  0  0  0
  1 11  1  0  0  0
  3 30  1  0  0  0
  4  5  2  0  0  0
  4  9  1  0  0  0
  5  6  1  0  0  0
  6  7  2  0  0  0
  7  8  1  0  0  0
  7 10  1  0  0  0
  8  9  2  0  0  0
 10 14  1  0  0  0
 10 31  1  0  0  0
 11 12  1  0  0  0
 11 21  1  0  0  0
 12 13  1  0  0  0
 13 14  1  0  0  0
 15 17  2  0  0  0
 15 32  1  0  0  0
 16 17  1  0  0  0
 16 33  1  0  0  0
 16 34  1  0  0  0
 17 28  1  0  0  0
 18 19  2  0  0  0
 18 23  1  0  0  0
 19 20  1  0  0  0
 20 21  2  0  0  0
 21 22  1  0  0  0
 22 23  2  0  0  0
 23 26  1  0  0  0
 24 25  2  0  0  0
 24 29  1  0  0  0
 25 26  1  0  0  0
 26 27  2  0  0  0
 27 28  1  0  0  0
 28 29  2  0  0  0
M  END
>  <CHROM.0>
77.88640716,-60.67265851,-173.15326151,-172.05254742,-79.91333198,162.75643581
167.54651550,-140.87258560,126.90708094

>  <CHROM.1>
-96.93100364,-116.55878391,82.71203563,60.28456883,-80.98673000,-72.53524327
178.56413558,177.81703771,-92.66410910,41.77836237,6.74591465,5.88206911
23.19991194,2.87813638,0.73226807,2.36660784

>  <FORMUL>
      4PP    C23 H24 N4 O2

>  <HET>
 4PP  C 500      29

>  <HETNAM>
     4PP (2S)-(3'-AMIDINO-3-BIPHENYL)-5-(4-PYRIDYLAMINO)PENTANOI
   2 4PP C ACID

>  <Name>
4PP.pdb

>  <RI>
0

>  <Rbt.Current_Directory>
/home/malgorzata/Desktop/rDOCK_IFD/Wyniki/7a_factor_Xa

>  <Rbt.Executable>
rbdock ($Id: //depot/dev/client3/rdock/2013.1/src/exe/rbdock.cxx#4 $)

>  <Rbt.Library>
libRbt.so (2013.1, Build901 2013/11/27)

>  <Rbt.Parameter_File>
/home/malgorzata/Desktop/rDock_2013.1_src/data/scripts/soft_docking.prm

>  <Rbt.Receptor>
cavity.prm

>  <SCORE>
-23.9345

>  <SCORE.INTER>
-24.4885

>  <SCORE.INTER.CONST>
1

>  <SCORE.INTER.POLAR>
-1.13503

>  <SCORE.INTER.REPUL>
0.40937

>  <SCORE.INTER.ROT>
9

>  <SCORE.INTER.VDW>
-37.0762

>  <SCORE.INTER.norm>
-0.84443

>  <SCORE.INTRA>
4.87358

>  <SCORE.INTRA.DIHEDRAL>
35.6088

>  <SCORE.INTRA.DIHEDRAL.0>
20.1331

>  <SCORE.INTRA.POLAR>
0

>  <SCORE.INTRA.POLAR.0>
0

>  <SCORE.INTRA.REPUL>
0

>  <SCORE.INTRA.REPUL.0>
0

>  <SCORE.INTRA.VDW>
-2.24818

>  <SCORE.INTRA.VDW.0>
0.0644272

>  <SCORE.INTRA.norm>
0.168054

>  <SCORE.RESTR>
0

>  <SCORE.RESTR.CAVITY>
0

>  <SCORE.RESTR.norm>
0

>  <SCORE.SYSTEM>
-4.31957

>  <SCORE.SYSTEM.CONST>
0

>  <SCORE.SYSTEM.DIHEDRAL>
6.62728

>  <SCORE.SYSTEM.POLAR>
-2.02964

>  <SCORE.SYSTEM.REPUL>
0.657809

>  <SCORE.SYSTEM.VDW>
-4.02146

>  <SCORE.SYSTEM.norm>
-0.148951

>  <SCORE.heavy>
29

>  <SCORE.norm>
-0.825326

$$$$
4PP.pdb
  rDOCK(R)          3D
libRbt.so/2013.1/901 2013/11/27
 34 36  0  0  0  0  0  0  0  0999 V2000
    4.5039    0.9014   17.5231 C   0  0  0  0  0  0
    4.2881    2.0855   17.2296 O   0  0  0  0  0  0
    3.4956    0.1191   18.0176 O   0  0  0  0  0  0
   12.5131   -2.3680   16.4266 N   0  0  0  0  0  0
   11.8844   -1.4195   17.2570 C   0  0  0  0  0  0
   10.4824   -1.2734   17.2116 C   0  0  0  0  0  0
    9.7129   -2.0703   16.3392 C   0  0  0  0  0  0
   10.3527   -3.0286   15.5037 C   0  0  0  0  0  0
   11.7467   -3.1715   15.5524 C   0  0  0  0  0  0
    8.2384   -1.8789   16.3252 N   0  0  0  0  0  0
    5.9177    0.3231   17.3129 C   0  0  0  0  0  0
    6.3697    0.4935   15.8604 C   0  0  0  0  0  0
    6.3174   -0.8820   15.2026 C   0  0  0  0  0  0
    7.7335   -1.4146   15.0147 C   0  0  0  0  0  0
    9.7164    7.7887   22.3184 N   0  0  0  0  0  0
    9.4774    8.1323   20.0713 N   0  0  0  0  0  0
    9.1131    7.5139   21.1768 C   0  0  0  0  0  0
    8.7653    2.1962   20.0738 C   0  0  0  0  0  0
    9.0647    0.9453   19.4675 C   0  0  0  0  0  0
    8.1351    0.3510   18.5752 C   0  0  0  0  0  0
    6.8997    1.0000   18.2830 C   0  0  0  0  0  0
    6.5913    2.2599   18.8923 C   0  0  0  0  0  0
    7.5250    2.8623   19.7899 C   0  0  0  0  0  0
    5.6501    5.7878   21.5784 C   0  0  0  0  0  0
    5.9080    4.5191   20.9818 C   0  0  0  0  0  0
    7.2061    4.2318   20.4507 C   0  0  0  0  0  0
    8.2255    5.2170   20.5238 C   0  0  0  0  0  0
    7.9742    6.4782   21.1181 C   0  0  0  0  0  0
    6.6850    6.7685   21.6464 C   0  0  0  0  0  0
    3.6844   -0.7402   18.3400 H   0  0  0  0  0  0
    7.6601   -2.0435   17.1048 H   0  0  0  0  0  0
   10.4430    8.4525   22.3439 H   0  0  0  0  0  0
   10.2038    8.7964   20.0953 H   0  0  0  0  0  0
    9.0231    7.9302   19.2216 H   0  0  0  0  0  0
  1  2  2  0  0  0
  1  3  1  0  0  0
  1 11  1  0  0  0
  3 30  1  0  0  0
  4  5  2  0  0  0
  4  9  1  0  0  0
  5  6  1  0  0  0
  6  7  2  0  0  0
  7  8  1  0  0  0
  7 10  1  0  0  0
  8  9  2  0  0  0
 10 14  1  0  0  0
 10 31  1  0  0  0
 11 12  1  0  0  0
 11 21  1  0  0  0
 12 13  1  0  0  0
 13 14  1  0  0  0
 15 17  2  0  0  0
 15 32  1  0  0  0
 16 17  1  0  0  0
 16 33  1  0  0  0
 16 34  1  0  0  0
 17 28  1  0  0  0
 18 19  2  0  0  0
 18 23  1  0  0  0
 19 20  1  0  0  0
 20 21  2  0  0  0
 21 22  1  0  0  0
 22 23  2  0  0  0
 23 26  1  0  0  0
 24 25  2  0  0  0
 24 29  1  0  0  0
 25 26  1  0  0  0
 26 27  2  0  0  0
 27 28  1  0  0  0
 28 29  2  0  0  0
M  END
>  <CHROM.0>
107.34219424,-60.67265851,145.47024604,66.38929515,50.68965097,-46.32747408
143.53923634,-30.51570030,-55.79269294

>  <CHROM.1>
-172.24507120,-56.20539095,117.38469857,-164.37356820,-106.86231784,160.03963602
-106.27646613,75.90907311,-107.00477855,-137.15673707,7.90796035,1.80413022
18.43751254,1.41927389,0.07710607,-2.58969974

>  <FORMUL>
      4PP    C23 H24 N4 O2

>  <HET>
 4PP  C 500      29

>  <HETNAM>
     4PP (2S)-(3'-AMIDINO-3-BIPHENYL)-5-(4-PYRIDYLAMINO)PENTANOI
   2 4PP C ACID

>  <Name>
4PP.pdb

>  <RI>
0

>  <Rbt.Current_Directory>
/home/malgorzata/Desktop/rDOCK_IFD/Wyniki/7a_factor_Xa

>  <Rbt.Executable>
rbdock ($Id: //depot/dev/client3/rdock/2013.1/src/exe/rbdock.cxx#4 $)

>  <Rbt.Library>
libRbt.so (2013.1, Build901 2013/11/27)

>  <Rbt.Parameter_File>
/home/malgorzata/Desktop/rDock_2013.1_src/data/scripts/soft_docking.prm

>  <Rbt.Receptor>
cavity.prm

>  <SCORE>
-33.0362

>  <SCORE.INTER>
-28.0181

>  <SCORE.INTER.CONST>
1

>  <SCORE.INTER.POLAR>
-1.5284

>  <SCORE.INTER.REPUL>
0.0485391

>  <SCORE.INTER.ROT>
9

>  <SCORE.INTER.VDW>
-37.4643

>  <SCORE.INTER.norm>
-0.966142

>  <SCORE.INTRA>
0.707956

>  <SCORE.INTRA.DIHEDRAL>
20.7235

>  <SCORE.INTRA.DIHEDRAL.0>
20.1331

>  <SCORE.INTRA.POLAR>
0

>  <SCORE.INTRA.POLAR.0>
0

>  <SCORE.INTRA.REPUL>
0

>  <SCORE.INTRA.REPUL.0>
0

>  <SCORE.INTRA.VDW>
-3.43674

>  <SCORE.INTRA.VDW.0>
0.0644272

>  <SCORE.INTRA.norm>
0.0244123

>  <SCORE.RESTR>
0

>  <SCORE.RESTR.CAVITY>
0

>  <SCORE.RESTR.norm>
0

>  <SCORE.SYSTEM>
-5.72602

>  <SCORE.SYSTEM.CONST>
0

>  <SCORE.SYSTEM.DIHEDRAL>
5.45169

>  <SCORE.SYSTEM.POLAR>
-2.72915

>  <SCORE.SYSTEM.REPUL>
0.76029

>  <SCORE.SYSTEM.VDW>
-2.97421

>  <SCORE.SYSTEM.norm>
-0.197449

>  <SCORE.heavy>
29

>  <SCORE.norm>
-1.13918

$$$$
4PP.pdb
  rDOCK(R)          3D
libRbt.so/2013.1/901 2013/11/27
 34 36  0  0  0  0  0  0  0  0999 V2000
    7.4720    7.0308   25.5845 C   0  0  0  0  0  0
    6.2679    6.7611   25.6955 O   0  0  0  0  0  0
    8.3253    6.8192   26.6335 O   0  0  0  0  0  0
    3.0650    9.1483   19.7242 N   0  0  0  0  0  0
    4.0768    8.2089   20.0043 C   0  0  0  0  0  0
    4.4782    7.9935   21.3389 C   0  0  0  0  0  0
    3.8724    8.7146   22.3884 C   0  0  0  0  0  0
    2.8492    9.6612   22.1004 C   0  0  0  0  0  0
    2.4522    9.8719   20.7722 C   0  0  0  0  0  0
    4.3303    8.4546   23.7789 N   0  0  0  0  0  0
    7.9930    7.5960   24.2478 C   0  0  0  0  0  0
    6.9510    8.5072   23.5942 C   0  0  0  0  0  0
    6.3826    9.4069   24.6873 C   0  0  0  0  0  0
    4.9009    9.6550   24.4280 C   0  0  0  0  0  0
   13.7705    7.6238   30.0436 N   0  0  0  0  0  0
   15.0013    5.7198   29.7528 N   0  0  0  0  0  0
   14.3303    6.7342   29.2448 C   0  0  0  0  0  0
   11.7315    9.7952   24.9014 C   0  0  0  0  0  0
   10.5815   10.4614   24.3957 C   0  0  0  0  0  0
    9.3780    9.7382   24.1902 C   0  0  0  0  0  0
    9.3142    8.3451   24.4862 C   0  0  0  0  0  0
   10.4703    7.6674   24.9943 C   0  0  0  0  0  0
   11.6833    8.3921   25.2041 C   0  0  0  0  0  0
   15.0915    6.4941   25.4375 C   0  0  0  0  0  0
   13.9519    7.1531   24.8905 C   0  0  0  0  0  0
   12.9412    7.6708   25.7622 C   0  0  0  0  0  0
   13.0851    7.5214   27.1665 C   0  0  0  0  0  0
   14.2171    6.8694   27.7145 C   0  0  0  0  0  0
   15.2239    6.3523   26.8516 C   0  0  0  0  0  0
    7.9837    6.6849   27.4956 H   0  0  0  0  0  0
    4.2610    7.5773   24.2204 H   0  0  0  0  0  0
   13.8494    7.5271   31.0202 H   0  0  0  0  0  0
   15.0811    5.6219   30.7291 H   0  0  0  0  0  0
   15.4227    5.0600   29.1559 H   0  0  0  0  0  0
  1  2  2  0  0  0
  1  3  1  0  0  0
  1 11  1  0  0  0
  3 30  1  0  0  0
  4  5  2  0  0  0
  4  9  1  0  0  0
  5  6  1  0  0  0
  6  7  2  0  0  0
  7  8  1  0  0  0
  7 10  1  0  0  0
  8  9  2  0  0  0
 10 14  1  0  0  0
 10 31  1  0  0  0
 11 12  1  0  0  0
 11 21  1  0  0  0
 12 13  1  0  0  0
 13 14  1  0  0  0
 15 17  2  0  0  0
 15 32  1  0  0  0
 16 17  1  0  0  0
 16 33  1  0  0  0
 16 34  1  0  0  0
 17 28  1  0  0  0
 18 19  2  0  0  0
 18 23  1  0  0  0
 19 20  1  0  0  0
 20 21  2  0  0  0
 21 22  1  0  0  0
 22 23  2  0  0  0
 23 26  1  0  0  0
 24 25  2  0  0  0
 24 29  1  0  0  0
 25 26  1  0  0  0
 26 27  2  0  0  0
 27 28  1  0  0  0
 28 29  2  0  0  0
M  END
>  <CHROM.0>
-6.37888584,-60.67265851,52.30674573,-11.93119428,-34.79632518,12.79875084
169.91052768,-81.20866449,-49.33675340

>  <CHROM.1>
-15.83533889,35.07582158,118.89330927,-114.59156632,44.27765986,-118.34406139
-144.37968333,32.15848511,-28.42972066,-85.32474061,9.06037802,8.05363928
24.88497185,2.60743162,-0.00635533,-1.23153687

>  <FORMUL>
      4PP    C23 H24 N4 O2

>  <HET>
 4PP  C 500      29

>  <HETNAM>
     4PP (2S)-(3'-AMIDINO-3-BIPHENYL)-5-(4-PYRIDYLAMINO)PENTANOI
   2 4PP C ACID

>  <Name>
4PP.pdb

>  <RI>
0

>  <Rbt.Current_Directory>
/home/malgorzata/Desktop/rDOCK_IFD/Wyniki/7a_factor_Xa

>  <Rbt.Executable>
rbdock ($Id: //depot/dev/client3/rdock/2013.1/src/exe/rbdock.cxx#4 $)

>  <Rbt.Library>
libRbt.so (2013.1, Build901 2013/11/27)

>  <Rbt.Parameter_File>
/home/malgorzata/Desktop/rDock_2013.1_src/data/scripts/soft_docking.prm

>  <Rbt.Receptor>
cavity.prm

>  <SCORE>
-18.7676

>  <SCORE.INTER>
-30.6663

>  <SCORE.INTER.CONST>
1

>  <SCORE.INTER.POLAR>
-1.95057

>  <SCORE.INTER.REPUL>
0.0461045

>  <SCORE.INTER.ROT>
9

>  <SCORE.INTER.VDW>
-38.6649

>  <SCORE.INTER.norm>
-1.05746

>  <SCORE.INTRA>
4.98837

>  <SCORE.INTRA.DIHEDRAL>
11.1508

>  <SCORE.INTRA.DIHEDRAL.0>
20.1331

>  <SCORE.INTRA.POLAR>
0

>  <SCORE.INTRA.POLAR.0>
0

>  <SCORE.INTRA.REPUL>
0

>  <SCORE.INTRA.REPUL.0>
0

>  <SCORE.INTRA.VDW>
2.75822

>  <SCORE.INTRA.VDW.0>
0.0644272

>  <SCORE.INTRA.norm>
0.172013

>  <SCORE.RESTR>
0.173656

>  <SCORE.RESTR.CAVITY>
0.173656

>  <SCORE.RESTR.norm>
0.00598815

>  <SCORE.SYSTEM>
6.73667

>  <SCORE.SYSTEM.CONST>
0

>  <SCORE.SYSTEM.DIHEDRAL>
24.6049

>  <SCORE.SYSTEM.POLAR>
-1.94841

>  <SCORE.SYSTEM.REPUL>
0.657809

>  <SCORE.SYSTEM.VDW>
-2.23019

>  <SCORE.SYSTEM.norm>
0.232299

>  <SCORE.heavy>
29

>  <SCORE.norm>
-0.647159

$$$$
4PP.pdb
  rDOCK(R)          3D
libRbt.so/2013.1/901 2013/11/27
 34 36  0  0  0  0  0  0  0  0999 V2000
    7.4930    5.7370   20.5631 C   0  0  0  0  0  0
    8.7247    5.8594   20.5133 O   0  0  0  0  0  0
    6.7845    5.4303   19.4328 O   0  0  0  0  0  0
    7.4270    0.2454   17.4378 N   0  0  0  0  0  0
    6.4336    1.1698   17.0598 C   0  0  0  0  0  0
    5.9036    2.0558   18.0205 C   0  0  0  0  0  0
    6.3633    2.0169   19.3530 C   0  0  0  0  0  0
    7.3686    1.0823   19.7295 C   0  0  0  0  0  0
    7.8937    0.2037   18.7712 C   0  0  0  0  0  0
    5.7733    2.9693   20.3307 N   0  0  0  0  0  0
    6.7755    5.9243   21.9150 C   0  0  0  0  0  0
    6.9588    4.6948   22.8082 C   0  0  0  0  0  0
    5.7321    3.8076   22.6197 C   0  0  0  0  0  0
    6.0896    2.6203   21.7328 C   0  0  0  0  0  0
   12.9539    7.2924   28.6993 N   0  0  0  0  0  0
   10.7622    6.6738   28.5037 N   0  0  0  0  0  0
   11.8337    7.2546   28.0019 C   0  0  0  0  0  0
    8.2116    9.5846   23.8591 C   0  0  0  0  0  0
    6.9483    9.5622   23.2068 C   0  0  0  0  0  0
    6.4952    8.3710   22.5828 C   0  0  0  0  0  0
    7.3001    7.1944   22.6041 C   0  0  0  0  0  0
    8.5751    7.2111   23.2584 C   0  0  0  0  0  0
    9.0343    8.4078   23.8889 C   0  0  0  0  0  0
   12.8122    9.0227   24.6778 C   0  0  0  0  0  0
   11.5640    9.0167   23.9892 C   0  0  0  0  0  0
   10.4110    8.4365   24.6085 C   0  0  0  0  0  0
   10.5237    7.8713   25.9058 C   0  0  0  0  0  0
   11.7615    7.8773   26.5947 C   0  0  0  0  0  0
   12.9106    8.4521   25.9824 C   0  0  0  0  0  0
    7.2199    5.3874   18.6042 H   0  0  0  0  0  0
    5.2303    3.7487   20.0724 H   0  0  0  0  0  0
   12.9882    6.8911   29.5977 H   0  0  0  0  0  0
   10.7951    6.2720   29.4019 H   0  0  0  0  0  0
    9.9289    6.6417   27.9804 H   0  0  0  0  0  0
  1  2  2  0  0  0
  1  3  1  0  0  0
  1 11  1  0  0  0
  3 30  1  0  0  0
  4  5  2  0  0  0
  4  9  1  0  0  0
  5  6  1  0  0  0
  6  7  2  0  0  0
  7  8  1  0  0  0
  7 10  1  0  0  0
  8  9  2  0  0  0
 10 14  1  0  0  0
 10 31  1  0  0  0
 11 12  1  0  0  0
 11 21  1  0  0  0
 12 13  1  0  0  0
 13 14  1  0  0  0
 15 17  2  0  0  0
 15 32  1  0  0  0
 16 17  1  0  0  0
 16 33  1  0  0  0
 16 34  1  0  0  0
 17 28  1  0  0  0
 18 19  2  0  0  0
 18 23  1  0  0  0
 19 20  1  0  0  0
 20 21  2  0  0  0
 21 22  1  0  0  0
 22 23  2  0  0  0
 23 26  1  0  0  0
 24 25  2  0  0  0
 24 29  1  0  0  0
 25 26  1  0  0  0
 26 27  2  0  0  0
 27 28  1  0  0  0
 28 29  2  0  0  0
M  END
>  <CHROM.0>
172.89861772,-60.67265851,-51.34714774,-56.06801244,114.70695101,-108.63697877
-120.17414938,46.67055057,-0.86295954

>  <CHROM.1>
-5.46286915,-76.50633882,166.22542079,166.87923892,-95.67663968,103.19528144
103.76123760,-92.89716841,-177.04454210,-78.97971210,8.52005818,5.67725247
22.62518504,2.26192338,0.80554476,-2.80504193

>  <FORMUL>
      4PP    C23 H24 N4 O2

>  <HET>
 4PP  C 500      29

>  <HETNAM>
     4PP (2S)-(3'-AMIDINO-3-BIPHENYL)-5-(4-PYRIDYLAMINO)PENTANOI
   2 4PP C ACID

>  <Name>
4PP.pdb

>  <RI>
0

>  <Rbt.Current_Directory>
/home/malgorzata/Desktop/rDOCK_IFD/Wyniki/7a_factor_Xa

>  <Rbt.Executable>
rbdock ($Id: //depot/dev/client3/rdock/2013.1/src/exe/rbdock.cxx#4 $)

>  <Rbt.Library>
libRbt.so (2013.1, Build901 2013/11/27)

>  <Rbt.Parameter_File>
/home/malgorzata/Desktop/rDock_2013.1_src/data/scripts/soft_docking.prm

>  <Rbt.Receptor>
cavity.prm

>  <SCORE>
-31.1485

>  <SCORE.INTER>
-29.8615

>  <SCORE.INTER.CONST>
1

>  <SCORE.INTER.POLAR>
-2.16567

>  <SCORE.INTER.REPUL>
0.348249

>  <SCORE.INTER.ROT>
9

>  <SCORE.INTER.VDW>
-38.6395

>  <SCORE.INTER.norm>
-1.02971

>  <SCORE.INTRA>
-1.78053

>  <SCORE.INTRA.DIHEDRAL>
2.26854

>  <SCORE.INTRA.DIHEDRAL.0>
20.1331

>  <SCORE.INTRA.POLAR>
-0.0307755

>  <SCORE.INTRA.POLAR.0>
0

>  <SCORE.INTRA.REPUL>
0

>  <SCORE.INTRA.REPUL.0>
0

>  <SCORE.INTRA.VDW>
-2.12961

>  <SCORE.INTRA.VDW.0>
0.0644272

>  <SCORE.INTRA.norm>
-0.0613977

>  <SCORE.RESTR>
0.324932

>  <SCORE.RESTR.CAVITY>
0.324932

>  <SCORE.RESTR.norm>
0.0112046

>  <SCORE.SYSTEM>
0.168597

>  <SCORE.SYSTEM.CONST>
0

>  <SCORE.SYSTEM.DIHEDRAL>
20.2994

>  <SCORE.SYSTEM.POLAR>
-3.09541

>  <SCORE.SYSTEM.REPUL>
0.707218

>  <SCORE.SYSTEM.VDW>
-2.99281

>  <SCORE.SYSTEM.norm>
0.00581368

>  <SCORE.heavy>
29

>  <SCORE.norm>
-1.07409

$$$$
4PP.pdb
  rDOCK(R)          3D
libRbt.so/2013.1/901 2013/11/27
 34 36  0  0  0  0  0  0  0  0999 V2000
    7.8445   10.0497   21.1484 C   0  0  0  0  0  0
    7.0436   10.9934   21.2010 O   0  0  0  0  0  0
    8.9962   10.1629   20.4176 O   0  0  0  0  0  0
   11.5537    6.6994   28.1182 N   0  0  0  0  0  0
   11.0408    5.4793   27.6356 C   0  0  0  0  0  0
    9.8803    5.4789   26.8343 C   0  0  0  0  0  0
    9.2346    6.6920   26.5184 C   0  0  0  0  0  0
    9.7578    7.9222   27.0067 C   0  0  0  0  0  0
   10.9124    7.9185   27.8024 C   0  0  0  0  0  0
    8.0131    6.6410   25.6720 N   0  0  0  0  0  0
    7.5293    8.7556   21.9252 C   0  0  0  0  0  0
    6.6220    9.0426   23.1242 C   0  0  0  0  0  0
    6.6504    7.8099   24.0225 C   0  0  0  0  0  0
    8.0698    7.5762   24.5274 C   0  0  0  0  0  0
    7.2511    1.6880   16.2826 N   0  0  0  0  0  0
    6.9132   -0.2152   17.5025 N   0  0  0  0  0  0
    7.1823    1.0739   17.4492 C   0  0  0  0  0  0
    5.6531    5.8807   19.1948 C   0  0  0  0  0  0
    5.2243    7.2362   19.2213 C   0  0  0  0  0  0
    5.8407    8.1562   20.1086 C   0  0  0  0  0  0
    6.8881    7.7296   20.9767 C   0  0  0  0  0  0
    7.3236    6.3644   20.9561 C   0  0  0  0  0  0
    6.7067    5.4355   20.0633 C   0  0  0  0  0  0
    8.2098    1.9775   21.0908 C   0  0  0  0  0  0
    7.7894    3.3377   21.1621 C   0  0  0  0  0  0
    7.1753    3.9546   20.0256 C   0  0  0  0  0  0
    6.9915    3.2026   18.8357 C   0  0  0  0  0  0
    7.4056    1.8499   18.7611 C   0  0  0  0  0  0
    8.0175    1.2329   19.8883 C   0  0  0  0  0  0
    9.8067   10.3544   20.8469 H   0  0  0  0  0  0
    7.2484    6.0483   25.8541 H   0  0  0  0  0  0
    7.1066    1.1818   15.4506 H   0  0  0  0  0  0
    6.7684   -0.7226   16.6713 H   0  0  0  0  0  0
    6.8570   -0.6708   18.3734 H   0  0  0  0  0  0
  1  2  2  0  0  0
  1  3  1  0  0  0
  1 11  1  0  0  0
  3 30  1  0  0  0
  4  5  2  0  0  0
  4  9  1  0  0  0
  5  6  1  0  0  0
  6  7  2  0  0  0
  7  8  1  0  0  0
  7 10  1  0  0  0
  8  9  2  0  0  0
 10 14  1  0  0  0
 10 31  1  0  0  0
 11 12  1  0  0  0
 11 21  1  0  0  0
 12 13  1  0  0  0
 13 14  1  0  0  0
 15 17  2  0  0  0
 15 32  1  0  0  0
 16 17  1  0  0  0
 16 33  1  0  0  0
 16 34  1  0  0  0
 17 28  1  0  0  0
 18 19  2  0  0  0
 18 23  1  0  0  0
 19 20  1  0  0  0
 20 21  2  0  0  0
 21 22  1  0  0  0
 22 23  2  0  0  0
 23 26  1  0  0  0
 24 25  2  0  0  0
 24 29  1  0  0  0
 25 26  1  0  0  0
 26 27  2  0  0  0
 27 28  1  0  0  0
 28 29  2  0  0  0
M  END
>  <CHROM.0>
-75.32746847,-60.67265851,-178.93327083,83.16586390,139.87877629,-169.86860621
-114.78031456,-144.26194233,-179.18627658

>  <CHROM.1>
100.18469328,-26.00951800,-129.48005128,-160.70105281,-165.86348723,-46.41658027
62.02429630,164.14107388,33.26530436,-154.60237225,7.85789760,5.91144063
21.96797534,0.96460049,-1.11856577,0.39666318

>  <FORMUL>
      4PP    C23 H24 N4 O2

>  <HET>
 4PP  C 500      29

>  <HETNAM>
     4PP (2S)-(3'-AMIDINO-3-BIPHENYL)-5-(4-PYRIDYLAMINO)PENTANOI
   2 4PP C ACID

>  <Name>
4PP.pdb

>  <RI>
0

>  <Rbt.Current_Directory>
/home/malgorzata/Desktop/rDOCK_IFD/Wyniki/7a_factor_Xa

>  <Rbt.Executable>
rbdock ($Id: //depot/dev/client3/rdock/2013.1/src/exe/rbdock.cxx#4 $)

>  <Rbt.Library>
libRbt.so (2013.1, Build901 2013/11/27)

>  <Rbt.Parameter_File>
/home/malgorzata/Desktop/rDock_2013.1_src/data/scripts/soft_docking.prm

>  <Rbt.Receptor>
cavity.prm

>  <SCORE>
-29.8931

>  <SCORE.INTER>
-30.4151

>  <SCORE.INTER.CONST>
1

>  <SCORE.INTER.POLAR>
-3.17092

>  <SCORE.INTER.REPUL>
0.694937

>  <SCORE.INTER.ROT>
9

>  <SCORE.INTER.VDW>
-37.5087

>  <SCORE.INTER.norm>
-1.0488

>  <SCORE.INTRA>
3.58981

>  <SCORE.INTRA.DIHEDRAL>
20.8916

>  <SCORE.INTRA.DIHEDRAL.0>
20.1331

>  <SCORE.INTRA.POLAR>
0

>  <SCORE.INTRA.POLAR.0>
0

>  <SCORE.INTRA.REPUL>
0

>  <SCORE.INTRA.REPUL.0>
0

>  <SCORE.INTRA.VDW>
-0.588507

>  <SCORE.INTRA.VDW.0>
0.0644272

>  <SCORE.INTRA.norm>
0.123787

>  <SCORE.RESTR>
0

>  <SCORE.RESTR.CAVITY>
0

>  <SCORE.RESTR.norm>
0

>  <SCORE.SYSTEM>
-3.06781

>  <SCORE.SYSTEM.CONST>
0

>  <SCORE.SYSTEM.DIHEDRAL>
11.0669

>  <SCORE.SYSTEM.POLAR>
-2.28105

>  <SCORE.SYSTEM.REPUL>
0.661145

>  <SCORE.SYSTEM.VDW>
-4.15141

>  <SCORE.SYSTEM.norm>
-0.105787

>  <SCORE.heavy>
29

>  <SCORE.norm>
-1.0308

$$$$
4PP.pdb
  rDOCK(R)          3D
libRbt.so/2013.1/901 2013/11/27
 34 36  0  0  0  0  0  0  0  0999 V2000
    9.8066    8.0122   24.4017 C   0  0  0  0  0  0
   10.0469    7.2192   23.4807 O   0  0  0  0  0  0
   10.5243    9.1718   24.5177 O   0  0  0  0  0  0
    7.5869    2.2421   30.4026 N   0  0  0  0  0  0
    8.9640    2.3609   30.6748 C   0  0  0  0  0  0
    9.7310    3.3219   29.9841 C   0  0  0  0  0  0
    9.1248    4.1589   29.0248 C   0  0  0  0  0  0
    7.7327    4.0362   28.7547 C   0  0  0  0  0  0
    6.9734    3.0802   29.4443 C   0  0  0  0  0  0
    9.9746    5.1555   28.3208 N   0  0  0  0  0  0
    8.6835    7.6781   25.4041 C   0  0  0  0  0  0
    8.9890    8.2632   26.7852 C   0  0  0  0  0  0
   10.0926    7.4125   27.4065 C   0  0  0  0  0  0
    9.5084    6.5456   28.5161 C   0  0  0  0  0  0
   -1.0543    8.3477   26.9087 N   0  0  0  0  0  0
    0.4510   10.0625   26.7754 N   0  0  0  0  0  0
    0.1572    8.7868   26.6222 C   0  0  0  0  0  0
    4.8902    9.2156   23.8273 C   0  0  0  0  0  0
    6.1262    9.7868   23.4176 C   0  0  0  0  0  0
    7.3463    9.2789   23.9345 C   0  0  0  0  0  0
    7.3413    8.1988   24.8650 C   0  0  0  0  0  0
    6.0987    7.6200   25.2833 C   0  0  0  0  0  0
    4.8684    8.1273   24.7642 C   0  0  0  0  0  0
    2.0288    5.5549   25.5337 C   0  0  0  0  0  0
    3.2841    6.0925   25.1247 C   0  0  0  0  0  0
    3.5151    7.5032   25.2035 C   0  0  0  0  0  0
    2.4880    8.3541   25.6893 C   0  0  0  0  0  0
    1.2399    7.8238   26.0992 C   0  0  0  0  0  0
    1.0055    6.4222   26.0216 C   0  0  0  0  0  0
   11.4602    9.1423   24.5508 H   0  0  0  0  0  0
   10.7631    4.9158   27.7824 H   0  0  0  0  0  0
   -1.7382    8.9724   27.2423 H   0  0  0  0  0  0
   -0.2319   10.6884   27.1088 H   0  0  0  0  0  0
    1.3535   10.3896   26.5565 H   0  0  0  0  0  0
  1  2  2  0  0  0
  1  3  1  0  0  0
  1 11  1  0  0  0
  3 30  1  0  0  0
  4  5  2  0  0  0
  4  9  1  0  0  0
  5  6  1  0  0  0
  6  7  2  0  0  0
  7  8  1  0  0  0
  7 10  1  0  0  0
  8  9  2  0  0  0
 10 14  1  0  0  0
 10 31  1  0  0  0
 11 12  1  0  0  0
 11 21  1  0  0  0
 12 13  1  0  0  0
 13 14  1  0  0  0
 15 17  2  0  0  0
 15 32  1  0  0  0
 16 17  1  0  0  0
 16 33  1  0  0  0
 16 34  1  0  0  0
 17 28  1  0  0  0
 18 19  2  0  0  0
 18 23  1  0  0  0
 19 20  1  0  0  0
 20 21  2  0  0  0
 21 22  1  0  0  0
 22 23  2  0  0  0
 23 26  1  0  0  0
 24 25  2  0  0  0
 24 29  1  0  0  0
 25 26  1  0  0  0
 26 27  2  0  0  0
 27 28  1  0  0  0
 28 29  2  0  0  0
M  END
>  <CHROM.0>
163.59614552,-60.67265851,61.81595204,-163.12931885,-168.71590349,73.86079900
-155.47334962,31.23089137,121.84210662

>  <CHROM.1>
-54.01790540,149.43033265,-121.14754246,-160.04630185,-73.81543572,-24.28845457
-106.97977611,131.47727624,174.34686555,127.72241034,6.18713041,6.92409121
26.45593369,-0.44460876,0.06941679,-0.77407474

>  <FORMUL>
      4PP    C23 H24 N4 O2

>  <HET>
 4PP  C 500      29

>  <HETNAM>
     4PP (2S)-(3'-AMIDINO-3-BIPHENYL)-5-(4-PYRIDYLAMINO)PENTANOI
   2 4PP C ACID

>  <Name>
4PP.pdb

>  <RI>
0

>  <Rbt.Current_Directory>
/home/malgorzata/Desktop/rDOCK_IFD/Wyniki/7a_factor_Xa

>  <Rbt.Executable>
rbdock ($Id: //depot/dev/client3/rdock/2013.1/src/exe/rbdock.cxx#4 $)

>  <Rbt.Library>
libRbt.so (2013.1, Build901 2013/11/27)

>  <Rbt.Parameter_File>
/home/malgorzata/Desktop/rDock_2013.1_src/data/scripts/soft_docking.prm

>  <Rbt.Receptor>
cavity.prm

>  <SCORE>
-31.5595

>  <SCORE.INTER>
-34.3452

>  <SCORE.INTER.CONST>
1

>  <SCORE.INTER.POLAR>
-0.61419

>  <SCORE.INTER.REPUL>
0

>  <SCORE.INTER.ROT>
9

>  <SCORE.INTER.VDW>
-46.6569

>  <SCORE.INTER.norm>
-1.18432

>  <SCORE.INTRA>
2.88254

>  <SCORE.INTRA.DIHEDRAL>
23.2537

>  <SCORE.INTRA.DIHEDRAL.0>
20.1331

>  <SCORE.INTRA.POLAR>
0

>  <SCORE.INTRA.POLAR.0>
0

>  <SCORE.INTRA.REPUL>
0

>  <SCORE.INTRA.REPUL.0>
0

>  <SCORE.INTRA.VDW>
-1.76821

>  <SCORE.INTRA.VDW.0>
0.0644272

>  <SCORE.INTRA.norm>
0.0993978

>  <SCORE.RESTR>
0.501952

>  <SCORE.RESTR.CAVITY>
0.501952

>  <SCORE.RESTR.norm>
0.0173087

>  <SCORE.SYSTEM>
-0.598795

>  <SCORE.SYSTEM.CONST>
0

>  <SCORE.SYSTEM.DIHEDRAL>
9.08424

>  <SCORE.SYSTEM.POLAR>
-2.01544

>  <SCORE.SYSTEM.REPUL>
1.11372

>  <SCORE.SYSTEM.VDW>
-3.85701

>  <SCORE.SYSTEM.norm>
-0.0206481

>  <SCORE.heavy>
29

>  <SCORE.norm>
-1.08826

$$$$
4PP.pdb
  rDOCK(R)          3D
libRbt.so/2013.1/901 2013/11/27
 34 36  0  0  0  0  0  0  0  0999 V2000
   10.8026    9.6767   26.7678 C   0  0  0  0  0  0
   10.6044    9.3780   27.9536 O   0  0  0  0  0  0
   11.2198   10.9371   26.4349 O   0  0  0  0  0  0
    7.0106    2.8940   30.3272 N   0  0  0  0  0  0
    6.4010    3.8770   29.5231 C   0  0  0  0  0  0
    7.1646    4.5536   28.5496 C   0  0  0  0  0  0
    8.5315    4.2502   28.3816 C   0  0  0  0  0  0
    9.1423    3.2549   29.1951 C   0  0  0  0  0  0
    8.3794    2.5837   30.1614 C   0  0  0  0  0  0
    9.2959    4.9914   27.3437 N   0  0  0  0  0  0
   10.5830    8.6072   25.6790 C   0  0  0  0  0  0
    9.9843    7.3313   26.2763 C   0  0  0  0  0  0
   11.1377    6.5075   26.8405 C   0  0  0  0  0  0
   10.5994    5.4869   27.8369 C   0  0  0  0  0  0
    4.9300    8.3540   18.7021 N   0  0  0  0  0  0
    3.4911    6.6523   19.2102 N   0  0  0  0  0  0
    4.3589    7.5668   19.5948 C   0  0  0  0  0  0
    8.0607   10.2905   22.5096 C   0  0  0  0  0  0
    9.3039   10.8963   22.8405 C   0  0  0  0  0  0
   10.1107   10.3406   23.8671 C   0  0  0  0  0  0
    9.6819    9.1778   24.5717 C   0  0  0  0  0  0
    8.4291    8.5637   24.2443 C   0  0  0  0  0  0
    7.6147    9.1189   23.2105 C   0  0  0  0  0  0
    4.1181    7.3933   23.4736 C   0  0  0  0  0  0
    5.3530    7.9981   23.8497 C   0  0  0  0  0  0
    6.2582    8.4578   22.8405 C   0  0  0  0  0  0
    5.9153    8.3056   21.4714 C   0  0  0  0  0  0
    4.6881    7.7074   21.0931 C   0  0  0  0  0  0
    3.7856    7.2480   22.0931 C   0  0  0  0  0  0
   11.5598   11.1071   25.5785 H   0  0  0  0  0  0
    8.9694    5.1367   26.4263 H   0  0  0  0  0  0
    4.7119    8.2550   17.7472 H   0  0  0  0  0  0
    3.2719    6.5522   18.2556 H   0  0  0  0  0  0
    3.0620    6.0693   19.8775 H   0  0  0  0  0  0
  1  2  2  0  0  0
  1  3  1  0  0  0
  1 11  1  0  0  0
  3 30  1  0  0  0
  4  5  2  0  0  0
  4  9  1  0  0  0
  5  6  1  0  0  0
  6  7  2  0  0  0
  7  8  1  0  0  0
  7 10  1  0  0  0
  8  9  2  0  0  0
 10 14  1  0  0  0
 10 31  1  0  0  0
 11 12  1  0  0  0
 11 21  1  0  0  0
 12 13  1  0  0  0
 13 14  1  0  0  0
 15 17  2  0  0  0
 15 32  1  0  0  0
 16 17  1  0  0  0
 16 33  1  0  0  0
 16 34  1  0  0  0
 17 28  1  0  0  0
 18 19  2  0  0  0
 18 23  1  0  0  0
 19 20  1  0  0  0
 20 21  2  0  0  0
 21 22  1  0  0  0
 22 23  2  0  0  0
 23 26  1  0  0  0
 24 25  2  0  0  0
 24 29  1  0  0  0
 25 26  1  0  0  0
 26 27  2  0  0  0
 27 28  1  0  0  0
 28 29  2  0  0  0
M  END
>  <CHROM.0>
-109.92621366,-60.67265851,-10.32704386,-59.78674285,131.06954221,170.41790001
-136.16534656,169.34943206,6.21875862

>  <CHROM.1>
165.67035555,6.23348489,133.49928080,-166.04452892,-83.46985741,59.33468061
161.17543934,36.75800428,-22.97383566,-137.11228134,7.86586636,7.33361466
25.01036565,-1.02960875,-0.64809863,-0.83411262

>  <FORMUL>
      4PP    C23 H24 N4 O2

>  <HET>
 4PP  C 500      29

>  <HETNAM>
     4PP (2S)-(3'-AMIDINO-3-BIPHENYL)-5-(4-PYRIDYLAMINO)PENTANOI
   2 4PP C ACID

>  <Name>
4PP.pdb

>  <RI>
0

>  <Rbt.Current_Directory>
/home/malgorzata/Desktop/rDOCK_IFD/Wyniki/7a_factor_Xa

>  <Rbt.Executable>
rbdock ($Id: //depot/dev/client3/rdock/2013.1/src/exe/rbdock.cxx#4 $)

>  <Rbt.Library>
libRbt.so (2013.1, Build901 2013/11/27)

>  <Rbt.Parameter_File>
/home/malgorzata/Desktop/rDock_2013.1_src/data/scripts/soft_docking.prm

>  <Rbt.Receptor>
cavity.prm

>  <SCORE>
-19.5377

>  <SCORE.INTER>
-20.6678

>  <SCORE.INTER.CONST>
1

>  <SCORE.INTER.POLAR>
-0.0518173

>  <SCORE.INTER.REPUL>
0

>  <SCORE.INTER.ROT>
9

>  <SCORE.INTER.VDW>
-34.8916

>  <SCORE.INTER.norm>
-0.712682

>  <SCORE.INTRA>
2.96644

>  <SCORE.INTRA.DIHEDRAL>
0.966825

>  <SCORE.INTRA.DIHEDRAL.0>
20.1331

>  <SCORE.INTRA.POLAR>
0

>  <SCORE.INTRA.POLAR.0>
0

>  <SCORE.INTRA.REPUL>
0

>  <SCORE.INTRA.REPUL.0>
0

>  <SCORE.INTRA.VDW>
2.77308

>  <SCORE.INTRA.VDW.0>
0.0644272

>  <SCORE.INTRA.norm>
0.102291

>  <SCORE.RESTR>
0.266019

>  <SCORE.RESTR.CAVITY>
0.266019

>  <SCORE.RESTR.norm>
0.00917307

>  <SCORE.SYSTEM>
-2.10234

>  <SCORE.SYSTEM.CONST>
0

>  <SCORE.SYSTEM.DIHEDRAL>
8.57772

>  <SCORE.SYSTEM.POLAR>
-2.40836

>  <SCORE.SYSTEM.REPUL>
0.90794

>  <SCORE.SYSTEM.VDW>
-2.74248

>  <SCORE.SYSTEM.norm>
-0.0724946

>  <SCORE.heavy>
29

>  <SCORE.norm>
-0.673712

$$$$
4PP.pdb
  rDOCK(R)          3D
libRbt.so/2013.1/901 2013/11/27
 34 36  0  0  0  0  0  0  0  0999 V2000
    4.2948    6.0999   21.3134 C   0  0  0  0  0  0
    3.9796    5.2687   20.4505 O   0  0  0  0  0  0
    3.6880    7.3264   21.3431 O   0  0  0  0  0  0
    6.4941    0.0007   18.4068 N   0  0  0  0  0  0
    6.8075    0.2193   19.7627 C   0  0  0  0  0  0
    5.9962    1.0746   20.5369 C   0  0  0  0  0  0
    4.8782    1.7096   19.9580 C   0  0  0  0  0  0
    4.5646    1.4840   18.5882 C   0  0  0  0  0  0
    5.3731    0.6322   17.8221 C   0  0  0  0  0  0
    4.0539    2.6040   20.8134 N   0  0  0  0  0  0
    5.3690    5.7278   22.3550 C   0  0  0  0  0  0
    5.6690    4.2271   22.3215 C   0  0  0  0  0  0
    4.5176    3.5164   23.0262 C   0  0  0  0  0  0
    4.1384    2.2605   22.2496 C   0  0  0  0  0  0
   12.2075    5.9975   26.2953 N   0  0  0  0  0  0
   12.1698    7.5005   28.0169 N   0  0  0  0  0  0
   11.8266    7.1604   26.7907 C   0  0  0  0  0  0
    8.9884    8.0733   21.5559 C   0  0  0  0  0  0
    8.2331    7.5242   20.4835 C   0  0  0  0  0  0
    7.0634    6.7685   20.7560 C   0  0  0  0  0  0
    6.6403    6.5540   22.1005 C   0  0  0  0  0  0
    7.3983    7.1031   23.1858 C   0  0  0  0  0  0
    8.5755    7.8657   22.9157 C   0  0  0  0  0  0
   10.1438   10.3991   25.4446 C   0  0  0  0  0  0
    9.3706    9.8759   24.3672 C   0  0  0  0  0  0
    9.4014    8.4732   24.0831 C   0  0  0  0  0  0
   10.2047    7.6156   24.8796 C   0  0  0  0  0  0
   10.9727    8.1308   25.9527 C   0  0  0  0  0  0
   10.9459    9.5249   26.2382 C   0  0  0  0  0  0
    3.5885    7.7803   22.1568 H   0  0  0  0  0  0
    3.5102    3.3454   20.4614 H   0  0  0  0  0  0
   12.7531    5.3853   26.8401 H   0  0  0  0  0  0
   12.7153    6.8893   28.5629 H   0  0  0  0  0  0
   11.8807    8.3658   28.3870 H   0  0  0  0  0  0
  1  2  2  0  0  0
  1  3  1  0  0  0
  1 11  1  0  0  0
  3 30  1  0  0  0
  4  5  2  0  0  0
  4  9  1  0  0  0
  5  6  1  0  0  0
  6  7  2  0  0  0
  7  8  1  0  0  0
  7 10  1  0  0  0
  8  9  2  0  0  0
 10 14  1  0  0  0
 10 31  1  0  0  0
 11 12  1  0  0  0
 11 21  1  0  0  0
 12 13  1  0  0  0
 13 14  1  0  0  0
 15 17  2  0  0  0
 15 32  1  0  0  0
 16 17  1  0  0  0
 16 33  1  0  0  0
 16 34  1  0  0  0
 17 28  1  0  0  0
 18 19  2  0  0  0
 18 23  1  0  0  0
 19 20  1  0  0  0
 20 21  2  0  0  0
 21 22  1  0  0  0
 22 23  2  0  0  0
 23 26  1  0  0  0
 24 25  2  0  0  0
 24 29  1  0  0  0
 25 26  1  0  0  0
 26 27  2  0  0  0
 27 28  1  0  0  0
 28 29  2  0  0  0
M  END
>  <CHROM.0>
-40.65996823,-60.67265851,24.42015269,26.74284654,145.19980649,-88.43412213
-69.83939265,-157.97873073,-178.95363084

>  <CHROM.1>
150.47117915,-12.30181273,-25.58757411,127.12537190,-76.47354130,-40.46763838
138.15817614,-46.00047614,22.53884152,73.56010341,7.32402514,5.51283091,22.48983395
2.32508393,0.60967469,-2.88838659

>  <FORMUL>
      4PP    C23 H24 N4 O2

>  <HET>
 4PP  C 500      29

>  <HETNAM>
     4PP (2S)-(3'-AMIDINO-3-BIPHENYL)-5-(4-PYRIDYLAMINO)PENTANOI
   2 4PP C ACID

>  <Name>
4PP.pdb

>  <RI>
0

>  <Rbt.Current_Directory>
/home/malgorzata/Desktop/rDOCK_IFD/Wyniki/7a_factor_Xa

>  <Rbt.Executable>
rbdock ($Id: //depot/dev/client3/rdock/2013.1/src/exe/rbdock.cxx#4 $)

>  <Rbt.Library>
libRbt.so (2013.1, Build901 2013/11/27)

>  <Rbt.Parameter_File>
/home/malgorzata/Desktop/rDock_2013.1_src/data/scripts/soft_docking.prm

>  <Rbt.Receptor>
cavity.prm

>  <SCORE>
-23.5107

>  <SCORE.INTER>
-19.0975

>  <SCORE.INTER.CONST>
1

>  <SCORE.INTER.POLAR>
-0.671086

>  <SCORE.INTER.REPUL>
0

>  <SCORE.INTER.ROT>
9

>  <SCORE.INTER.VDW>
-31.2158

>  <SCORE.INTER.norm>
-0.658533

>  <SCORE.INTRA>
-0.610669

>  <SCORE.INTRA.DIHEDRAL>
4.67651

>  <SCORE.INTRA.DIHEDRAL.0>
20.1331

>  <SCORE.INTRA.POLAR>
-0.384181

>  <SCORE.INTRA.POLAR.0>
0

>  <SCORE.INTRA.REPUL>
0

>  <SCORE.INTRA.REPUL.0>
0

>  <SCORE.INTRA.VDW>
-0.239755

>  <SCORE.INTRA.VDW.0>
0.0644272

>  <SCORE.INTRA.norm>
-0.0210576

>  <SCORE.RESTR>
0

>  <SCORE.RESTR.CAVITY>
0

>  <SCORE.RESTR.norm>
0

>  <SCORE.SYSTEM>
-3.80261

>  <SCORE.SYSTEM.CONST>
0

>  <SCORE.SYSTEM.DIHEDRAL>
14.73

>  <SCORE.SYSTEM.POLAR>
-2.96704

>  <SCORE.SYSTEM.REPUL>
0.657809

>  <SCORE.SYSTEM.VDW>
-4.3687

>  <SCORE.SYSTEM.norm>
-0.131124

>  <SCORE.heavy>
29

>  <SCORE.norm>
-0.810715

$$$$
4PP.pdb
  rDOCK(R)          3D
libRbt.so/2013.1/901 2013/11/27
 34 36  0  0  0  0  0  0  0  0999 V2000
    4.4571    8.4873   19.5873 C   0  0  0  0  0  0
    5.6553    8.5329   19.2757 O   0  0  0  0  0  0
    3.5385    9.2390   18.9059 O   0  0  0  0  0  0
    2.2488   -0.9603   21.4242 N   0  0  0  0  0  0
    2.5036   -0.5505   22.7477 C   0  0  0  0  0  0
    2.9800    0.7538   22.9944 C   0  0  0  0  0  0
    3.2022    1.6435   21.9231 C   0  0  0  0  0  0
    2.9413    1.2253   20.5879 C   0  0  0  0  0  0
    2.4668   -0.0720   20.3469 C   0  0  0  0  0  0
    3.7068    3.0075   22.2325 N   0  0  0  0  0  0
    4.0182    7.5658   20.7431 C   0  0  0  0  0  0
    4.5973    6.1590   20.5731 C   0  0  0  0  0  0
    3.5701    5.1740   21.1225 C   0  0  0  0  0  0
    4.1170    3.7544   21.0234 C   0  0  0  0  0  0
   10.7664    7.4838   27.8589 N   0  0  0  0  0  0
    8.7691    6.3884   27.6707 N   0  0  0  0  0  0
    9.6400    7.2623   27.2070 C   0  0  0  0  0  0
    5.1671    9.3504   24.5817 C   0  0  0  0  0  0
    3.8103    9.3656   24.1563 C   0  0  0  0  0  0
    3.4522    8.7836   22.9127 C   0  0  0  0  0  0
    4.4455    8.1838   22.0843 C   0  0  0  0  0  0
    5.8149    8.1669   22.5066 C   0  0  0  0  0  0
    6.1794    8.7504   23.7585 C   0  0  0  0  0  0
   10.0382    9.3404   23.9426 C   0  0  0  0  0  0
    8.6904    9.3809   23.4802 C   0  0  0  0  0  0
    7.6593    8.7313   24.2313 C   0  0  0  0  0  0
    7.9914    8.0511   25.4322 C   0  0  0  0  0  0
    9.3291    8.0103   25.8967 C   0  0  0  0  0  0
   10.3576    8.6540   25.1527 C   0  0  0  0  0  0
    2.6270    9.0299   18.9630 H   0  0  0  0  0  0
    3.7620    3.3743   23.1444 H   0  0  0  0  0  0
   10.9544    6.9998   28.6954 H   0  0  0  0  0  0
    8.9558    5.9037   28.5070 H   0  0  0  0  0  0
    7.9318    6.2204   27.1808 H   0  0  0  0  0  0
  1  2  2  0  0  0
  1  3  1  0  0  0
  1 11  1  0  0  0
  3 30  1  0  0  0
  4  5  2  0  0  0
  4  9  1  0  0  0
  5  6  1  0  0  0
  6  7  2  0  0  0
  7  8  1  0  0  0
  7 10  1  0  0  0
  8  9  2  0  0  0
 10 14  1  0  0  0
 10 31  1  0  0  0
 11 12  1  0  0  0
 11 21  1  0  0  0
 12 13  1  0  0  0
 13 14  1  0  0  0
 15 17  2  0  0  0
 15 32  1  0  0  0
 16 17  1  0  0  0
 16 33  1  0  0  0
 16 34  1  0  0  0
 17 28  1  0  0  0
 18 19  2  0  0  0
 18 23  1  0  0  0
 19 20  1  0  0  0
 20 21  2  0  0  0
 21 22  1  0  0  0
 22 23  2  0  0  0
 23 26  1  0  0  0
 24 25  2  0  0  0
 24 29  1  0  0  0
 25 26  1  0  0  0
 26 27  2  0  0  0
 27 28  1  0  0  0
 28 29  2  0  0  0
M  END
>  <CHROM.0>
15.62569715,-60.67265851,-178.28640513,-176.96421762,77.37682739,-71.28994034
5.71283517,22.08946674,-90.39838753

>  <CHROM.1>
162.26762705,-49.11853821,170.07767279,135.44800648,-146.20676759,105.52759447
-178.01834684,141.65100620,-162.02516292,-118.95368145,5.57250697,6.19309981
22.87376786,2.60723156,0.82444698,2.77446867

>  <FORMUL>
      4PP    C23 H24 N4 O2

>  <HET>
 4PP  C 500      29

>  <HETNAM>
     4PP (2S)-(3'-AMIDINO-3-BIPHENYL)-5-(4-PYRIDYLAMINO)PENTANOI
   2 4PP C ACID

>  <Name>
4PP.pdb

>  <RI>
0

>  <Rbt.Current_Directory>
/home/malgorzata/Desktop/rDOCK_IFD/Wyniki/7a_factor_Xa

>  <Rbt.Executable>
rbdock ($Id: //depot/dev/client3/rdock/2013.1/src/exe/rbdock.cxx#4 $)

>  <Rbt.Library>
libRbt.so (2013.1, Build901 2013/11/27)

>  <Rbt.Parameter_File>
/home/malgorzata/Desktop/rDock_2013.1_src/data/scripts/soft_docking.prm

>  <Rbt.Receptor>
cavity.prm

>  <SCORE>
-33.8312

>  <SCORE.INTER>
-26.9229

>  <SCORE.INTER.CONST>
1

>  <SCORE.INTER.POLAR>
-3.00117

>  <SCORE.INTER.REPUL>
0.149538

>  <SCORE.INTER.ROT>
9

>  <SCORE.INTER.VDW>
-31.8666

>  <SCORE.INTER.norm>
-0.928377

>  <SCORE.INTRA>
-1.15149

>  <SCORE.INTRA.DIHEDRAL>
-0.253511

>  <SCORE.INTRA.DIHEDRAL.0>
20.1331

>  <SCORE.INTRA.POLAR>
0

>  <SCORE.INTRA.POLAR.0>
0

>  <SCORE.INTRA.REPUL>
0

>  <SCORE.INTRA.REPUL.0>
0

>  <SCORE.INTRA.VDW>
-1.10079

>  <SCORE.INTRA.VDW.0>
0.0644272

>  <SCORE.INTRA.norm>
-0.0397066

>  <SCORE.RESTR>
0

>  <SCORE.RESTR.CAVITY>
0

>  <SCORE.RESTR.norm>
0

>  <SCORE.SYSTEM>
-5.75674

>  <SCORE.SYSTEM.CONST>
0

>  <SCORE.SYSTEM.DIHEDRAL>
3.91757

>  <SCORE.SYSTEM.POLAR>
-2.87989

>  <SCORE.SYSTEM.REPUL>
1.09684

>  <SCORE.SYSTEM.VDW>
-3.40809

>  <SCORE.SYSTEM.norm>
-0.198508

>  <SCORE.heavy>
29

>  <SCORE.norm>
-1.16659

$$$$
