@<TRIPOS>MOLECULE
pose6.pdb
 44 46 0 0 0
SMALL
GASTEIGER

@<TRIPOS>ATOM
      1  S1        14.6990   -6.1210   13.8000 S.3     1  LIG1       -0.0542
      2  O1        14.5160   -3.4650   14.0450 O.2     1  LIG1       -0.2625
      3  O2        18.5030   -5.3020   13.1870 O.2     1  LIG1       -0.2741
      4  O3        12.3850  -11.2600   10.6690 O.3     1  LIG1       -0.4904
      5  N1        16.5650   -4.1840   13.5830 N.am    1  LIG1       -0.2463
      6  N2         9.5060  -12.6420    8.8660 N.pl3   1  LIG1       -0.3150
      7  N3         7.7130  -10.7510    8.9660 N.ar    1  LIG1       -0.2403
      8  C1        15.2820   -4.4030   13.8270 C.2     1  LIG1        0.2789
      9  C2        17.2720   -5.2980   13.3500 C.2     1  LIG1        0.2336
     10  C3        16.4330   -6.5830   13.3460 C.3     1  LIG1        0.0945
     11  C4        16.5290   -7.4430   12.0150 C.3     1  LIG1       -0.0069
     12  C5        15.3770   -8.3650   11.6660 C.ar    1  LIG1       -0.0456
     13  C6        15.0440   -8.7230   10.2920 C.ar    1  LIG1       -0.0551
     14  C7        14.0250   -9.6900   10.0430 C.ar    1  LIG1       -0.0197
     15  C8        13.3080  -10.3080   11.1360 C.ar    1  LIG1        0.1206
     16  C9        13.5980   -9.8770   12.5070 C.ar    1  LIG1       -0.0197
     17  C10       14.6250   -8.9170   12.7700 C.ar    1  LIG1       -0.0551
     18  C11       11.9200  -11.6140    9.3180 C.3     1  LIG1        0.1052
     19  C12       10.8560  -12.7020    9.5800 C.3     1  LIG1        0.0474
     20  C13        9.6890  -13.2060    7.4490 C.3     1  LIG1        0.0021
     21  C14        8.1610  -11.9860    9.4150 C.ar    1  LIG1        0.1211
     22  C15        6.5640  -10.1510    9.3750 C.ar    1  LIG1        0.0297
     23  C16        5.7060  -10.7900   10.3500 C.ar    1  LIG1       -0.0435
     24  C17        6.0920  -12.0650   10.8750 C.ar    1  LIG1       -0.0571
     25  C18        7.3130  -12.6660   10.4170 C.ar    1  LIG1       -0.0217
     26  H1        16.9630   -3.2840   13.5740 H       1  LIG1        0.1583
     27 H          16.8390   -7.2546   14.0734 H       1  LIG1        0.0515
     28 H          17.4069   -8.0497   12.0933 H       1  LIG1        0.0329
     29 H          16.5288   -6.7145   11.2313 H       1  LIG1        0.0329
     30 H          15.5424   -8.2795    9.5046 H       1  LIG1        0.0621
     31 H          13.7969   -9.9515    9.0711 H       1  LIG1        0.0654
     32 H          13.0549  -10.2708   13.2912 H       1  LIG1        0.0654
     33 H          14.8270   -8.6215   13.7379 H       1  LIG1        0.0621
     34 H          12.7233  -11.9988    8.7251 H       1  LIG1        0.0712
     35 H          11.5357  -10.7757    8.7752 H       1  LIG1        0.0712
     36 H          11.3019  -13.6388    9.3182 H       1  LIG1        0.0497
     37 H          10.5968  -12.5487   10.6068 H       1  LIG1        0.0497
     38 H          10.6837  -13.5854    7.3419 H       1  LIG1        0.0428
     39 H           9.5245  -12.4291    6.7319 H       1  LIG1        0.0428
     40 H           8.9863  -13.9963    7.2862 H       1  LIG1        0.0428
     41 H           6.3010   -9.2316    8.9869 H       1  LIG1        0.0830
     42 H           4.8331  -10.3355   10.6607 H       1  LIG1        0.0633
     43 H           5.5015  -12.5448   11.5722 H       1  LIG1        0.0619
     44 H           7.6019  -13.5832   10.7916 H       1  LIG1        0.0652
@<TRIPOS>BOND
     1     1     8    1
     2     1    10    1
     3     2     8    2
     4     3     9    2
     5     4    15    1
     6     4    18    1
     7     5     8   am
     8     5     9   am
     9     5    26    1
    10     6    19    1
    11     6    20    1
    12     6    21    1
    13     7    21   ar
    14     7    22   ar
    15     9    10    1
    16    10    11    1
    17    11    12    1
    18    12    13   ar
    19    12    17   ar
    20    13    14   ar
    21    14    15   ar
    22    15    16   ar
    23    16    17   ar
    24    18    19    1
    25    21    25   ar
    26    22    23   ar
    27    23    24   ar
    28    24    25   ar
    29    10    27    1
    30    11    28    1
    31    11    29    1
    32    13    30    1
    33    14    31    1
    34    16    32    1
    35    17    33    1
    36    18    34    1
    37    18    35    1
    38    19    36    1
    39    19    37    1
    40    20    38    1
    41    20    39    1
    42    20    40    1
    43    22    41    1
    44    23    42    1
    45    24    43    1
    46    25    44    1
