@<TRIPOS>MOLECULE
pose5.pdb
 44 46 0 0 0
SMALL
GASTEIGER

@<TRIPOS>ATOM
      1  S1        10.5890  -11.8760    9.5040 S.3     1  LIG1       -0.0542
      2  O1         9.4680  -13.6040   11.2080 O.2     1  LIG1       -0.2625
      3  O2        13.6210  -12.1470   12.0040 O.2     1  LIG1       -0.2741
      4  O3        17.3840   -7.3750   12.0330 O.3     1  LIG1       -0.4904
      5  N1        11.5130  -12.9690   11.7910 N.am    1  LIG1       -0.2463
      6  N2        16.2310   -4.9320   13.7610 N.pl3   1  LIG1       -0.3150
      7  N3        13.6280   -5.0650   13.6850 N.ar    1  LIG1       -0.2403
      8  C1        10.4760  -12.9410   10.9690 C.2     1  LIG1        0.2789
      9  C2        12.5320  -12.1870   11.4090 C.2     1  LIG1        0.2336
     10  C3        12.2530  -11.3720   10.1380 C.3     1  LIG1        0.0945
     11  C4        12.4190   -9.8010   10.2980 C.3     1  LIG1       -0.0069
     12  C5        13.7590   -9.2600   10.7550 C.ar    1  LIG1       -0.0456
     13  C6        14.7590   -8.7480    9.8250 C.ar    1  LIG1       -0.0551
     14  C7        15.9480   -8.1420   10.3320 C.ar    1  LIG1       -0.0197
     15  C8        16.1790   -8.0440   11.7560 C.ar    1  LIG1        0.1206
     16  C9        15.2030   -8.6370   12.6740 C.ar    1  LIG1       -0.0197
     17  C10       14.0020   -9.2370   12.1790 C.ar    1  LIG1       -0.0551
     18  C11       17.9810   -6.8810   13.2840 C.3     1  LIG1        0.1052
     19  C12       16.7700   -6.3290   14.0660 C.3     1  LIG1        0.0474
     20  C13       17.2470   -3.9030   14.2790 C.3     1  LIG1        0.0021
     21  C14       14.8060   -4.5690   13.1440 C.ar    1  LIG1        0.1211
     22  C15       12.3830   -4.7740   13.2220 C.ar    1  LIG1        0.0297
     23  C16       12.2060   -3.8960   12.0850 C.ar    1  LIG1       -0.0435
     24  C17       13.3680   -3.3420   11.4570 C.ar    1  LIG1       -0.0571
     25  C18       14.6650   -3.6740   11.9760 C.ar    1  LIG1       -0.0217
     26  H1        11.5340  -13.5150   12.6100 H       1  LIG1        0.1583
     27 H          13.0084  -11.6016    9.4158 H       1  LIG1        0.0515
     28 H          11.6879   -9.4765   11.0088 H       1  LIG1        0.0329
     29 H          12.3082   -9.4224    9.3034 H       1  LIG1        0.0329
     30 H          14.6080   -8.8233    8.8069 H       1  LIG1        0.0621
     31 H          16.6508   -7.7695    9.6745 H       1  LIG1        0.0654
     32 H          15.3840   -8.6217   13.6899 H       1  LIG1        0.0654
     33 H          13.3170   -9.6487   12.8319 H       1  LIG1        0.0621
     34 H          18.6948   -6.1082   13.0884 H       1  LIG1        0.0712
     35 H          18.5137   -7.6386   13.8199 H       1  LIG1        0.0712
     36 H          15.9624   -7.0125   13.9061 H       1  LIG1        0.0497
     37 H          17.1463   -6.2332   15.0631 H       1  LIG1        0.0497
     38 H          18.1174   -4.4110   14.6385 H       1  LIG1        0.0428
     39 H          16.8087   -3.3389   15.0756 H       1  LIG1        0.0428
     40 H          17.5226   -3.2423   13.4837 H       1  LIG1        0.0428
     41 H          11.5567   -5.1830   13.6856 H       1  LIG1        0.0830
     42 H          11.2614   -3.6736   11.7338 H       1  LIG1        0.0633
     43 H          13.2745   -2.7136   10.6437 H       1  LIG1        0.0619
     44 H          15.5087   -3.2832   11.5283 H       1  LIG1        0.0652
@<TRIPOS>BOND
     1     1     8    1
     2     1    10    1
     3     2     8    2
     4     3     9    2
     5     4    15    1
     6     4    18    1
     7     5     8   am
     8     5     9   am
     9     5    26    1
    10     6    19    1
    11     6    20    1
    12     6    21    1
    13     7    21   ar
    14     7    22   ar
    15     9    10    1
    16    10    11    1
    17    11    12    1
    18    12    13   ar
    19    12    17   ar
    20    13    14   ar
    21    14    15   ar
    22    15    16   ar
    23    16    17   ar
    24    18    19    1
    25    21    25   ar
    26    22    23   ar
    27    23    24   ar
    28    24    25   ar
    29    10    27    1
    30    11    28    1
    31    11    29    1
    32    13    30    1
    33    14    31    1
    34    16    32    1
    35    17    33    1
    36    18    34    1
    37    18    35    1
    38    19    36    1
    39    19    37    1
    40    20    38    1
    41    20    39    1
    42    20    40    1
    43    22    41    1
    44    23    42    1
    45    24    43    1
    46    25    44    1
