@<TRIPOS>MOLECULE
pose1.pdb
 44 46 0 0 0
SMALL
GASTEIGER

@<TRIPOS>ATOM
      1  S1        11.6920  -12.8120   11.7950 S.3     1  LIG1       -0.0542
      2  O1        12.6320  -15.1260   10.8440 O.2     1  LIG1       -0.2625
      3  O2        10.9320  -12.1300    7.9900 O.2     1  LIG1       -0.2741
      4  O3        16.9300   -9.3890   13.0140 O.3     1  LIG1       -0.4904
      5  N1        11.8660  -13.7560    9.2740 N.am    1  LIG1       -0.2463
      6  N2        16.7130   -6.7590   11.8500 N.pl3   1  LIG1       -0.3150
      7  N3        15.4110   -5.1020   13.3870 N.ar    1  LIG1       -0.2403
      8  C1        12.1140  -14.0510   10.5400 C.2     1  LIG1        0.2789
      9  C2        11.3140  -12.5470    9.0960 C.2     1  LIG1        0.2336
     10  C3        11.1540  -11.7360   10.3890 C.3     1  LIG1        0.0945
     11  C4        11.8550  -10.3120   10.3780 C.3     1  LIG1       -0.0069
     12  C5        13.1570  -10.1430   11.1360 C.ar    1  LIG1       -0.0456
     13  C6        14.3910  -10.8100   10.7370 C.ar    1  LIG1       -0.0551
     14  C7        15.6070  -10.5110   11.4210 C.ar    1  LIG1       -0.0197
     15  C8        15.6280   -9.5670   12.5160 C.ar    1  LIG1        0.1206
     16  C9        14.3650   -8.9670   12.9570 C.ar    1  LIG1       -0.0197
     17  C10       13.1410   -9.2500   12.2710 C.ar    1  LIG1       -0.0551
     18  C11       17.5450   -8.3310   13.8310 C.3     1  LIG1        0.1052
     19  C12       17.8140   -7.2030   12.8130 C.3     1  LIG1        0.0474
     20  C13       17.0090   -7.3670   10.4720 C.3     1  LIG1        0.0021
     21  C14       15.5330   -5.7320   12.1550 C.ar    1  LIG1        0.1211
     22  C15       14.4430   -4.2000   13.7000 C.ar    1  LIG1        0.0297
     23  C16       13.4370   -3.8300   12.7280 C.ar    1  LIG1       -0.0435
     24  C17       13.4800   -4.4350   11.4310 C.ar    1  LIG1       -0.0571
     25  C18       14.5170   -5.3840   11.1380 C.ar    1  LIG1       -0.0217
     26  H1        12.0670  -14.3690    8.5310 H       1  LIG1        0.1583
     27 H          10.1226  -11.4737   10.4995 H       1  LIG1        0.0515
     28 H          11.1569   -9.6127   10.7886 H       1  LIG1        0.0329
     29 H          12.1254  -10.1601    9.3539 H       1  LIG1        0.0329
     30 H          14.3848  -11.4942    9.9645 H       1  LIG1        0.0621
     31 H          16.4823  -10.9742   11.1306 H       1  LIG1        0.0654
     32 H          14.3584   -8.3333   13.7715 H       1  LIG1        0.0654
     33 H          12.2564   -8.8205   12.5841 H       1  LIG1        0.0621
     34 H          18.4571   -8.6716   14.2748 H       1  LIG1        0.0712
     35 H          16.9252   -8.0192   14.6456 H       1  LIG1        0.0712
     36 H          18.0963   -6.3391   13.3777 H       1  LIG1        0.0497
     37 H          18.5490   -7.6304   12.1634 H       1  LIG1        0.0497
     38 H          17.8518   -8.0222   10.5448 H       1  LIG1        0.0428
     39 H          17.2252   -6.5839    9.7756 H       1  LIG1        0.0428
     40 H          16.1564   -7.9187   10.1350 H       1  LIG1        0.0428
     41 H          14.4256   -3.7750   14.6403 H       1  LIG1        0.0830
     42 H          12.7033   -3.1439   12.9648 H       1  LIG1        0.0633
     43 H          12.7756   -4.1924   10.7168 H       1  LIG1        0.0619
     44 H          14.5538   -5.8283   10.2073 H       1  LIG1        0.0652
@<TRIPOS>BOND
     1     1     8    1
     2     1    10    1
     3     2     8    2
     4     3     9    2
     5     4    15    1
     6     4    18    1
     7     5     8   am
     8     5     9   am
     9     5    26    1
    10     6    19    1
    11     6    20    1
    12     6    21    1
    13     7    21   ar
    14     7    22   ar
    15     9    10    1
    16    10    11    1
    17    11    12    1
    18    12    13   ar
    19    12    17   ar
    20    13    14   ar
    21    14    15   ar
    22    15    16   ar
    23    16    17   ar
    24    18    19    1
    25    21    25   ar
    26    22    23   ar
    27    23    24   ar
    28    24    25   ar
    29    10    27    1
    30    11    28    1
    31    11    29    1
    32    13    30    1
    33    14    31    1
    34    16    32    1
    35    17    33    1
    36    18    34    1
    37    18    35    1
    38    19    36    1
    39    19    37    1
    40    20    38    1
    41    20    39    1
    42    20    40    1
    43    22    41    1
    44    23    42    1
    45    24    43    1
    46    25    44    1
