@<TRIPOS>MOLECULE
pose2.pdb
 44 46 0 0 0
SMALL
GASTEIGER

@<TRIPOS>ATOM
      1  S1        10.6700  -12.8360   10.4890 S.3     1  LIG1       -0.0542
      2  O1        11.6050  -14.4850    8.6040 O.2     1  LIG1       -0.2625
      3  O2         9.6090  -10.6780    7.3690 O.2     1  LIG1       -0.2741
      4  O3        16.3550   -9.4600   11.1220 O.3     1  LIG1       -0.4904
      5  N1        10.6840  -12.6330    7.7990 N.am    1  LIG1       -0.2463
      6  N2        16.7740   -6.6840   13.4600 N.pl3   1  LIG1       -0.3150
      7  N3        15.1080   -4.7150   13.8480 N.ar    1  LIG1       -0.2403
      8  C1        11.0350  -13.4140    8.8090 C.2     1  LIG1        0.2789
      9  C2        10.0850  -11.4950    8.1740 C.2     1  LIG1        0.2336
     10  C3         9.9970  -11.3060    9.6950 C.3     1  LIG1        0.0945
     11  C4        10.6530   -9.9680   10.2440 C.3     1  LIG1       -0.0069
     12  C5        12.1520   -9.9370   10.4630 C.ar    1  LIG1       -0.0456
     13  C6        13.0980   -9.6570    9.3890 C.ar    1  LIG1       -0.0551
     14  C7        14.4870   -9.5230    9.6900 C.ar    1  LIG1       -0.0197
     15  C8        14.9690   -9.6770   11.0440 C.ar    1  LIG1        0.1206
     16  C9        14.0160  -10.0390   12.0980 C.ar    1  LIG1       -0.0197
     17  C10       12.6200  -10.1650   11.8110 C.ar    1  LIG1       -0.0551
     18  C11       17.1620   -8.2480   11.3410 C.3     1  LIG1        0.1052
     19  C12       17.1080   -8.0550   12.8710 C.3     1  LIG1        0.0474
     20  C13       17.6910   -6.4470   14.6690 C.3     1  LIG1        0.0021
     21  C14       15.5930   -5.7120   13.0110 C.ar    1  LIG1        0.1211
     22  C15       14.1230   -3.8390   13.5160 C.ar    1  LIG1        0.0297
     23  C16       13.4900   -3.9010   12.2160 C.ar    1  LIG1       -0.0435
     24  C17       13.9210   -4.9030   11.2880 C.ar    1  LIG1       -0.0571
     25  C18       14.9650   -5.8090   11.6770 C.ar    1  LIG1       -0.0217
     26  H1        10.8480  -12.8680    6.8570 H       1  LIG1        0.1583
     27 H           8.9691  -11.1737    9.9611 H       1  LIG1        0.0515
     28 H          10.1914   -9.7524   11.1849 H       1  LIG1        0.0329
     29 H          10.4865   -9.2545    9.4642 H       1  LIG1        0.0329
     30 H          12.7653   -9.5563    8.4173 H       1  LIG1        0.0621
     31 H          15.1550   -9.3137    8.9318 H       1  LIG1        0.0654
     32 H          14.3562  -10.2048   13.0581 H       1  LIG1        0.0654
     33 H          11.9544  -10.4160   12.5587 H       1  LIG1        0.0621
     34 H          16.7363   -7.4076   10.8337 H       1  LIG1        0.0712
     35 H          18.1601   -8.3369   10.9659 H       1  LIG1        0.0712
     36 H          16.3723   -8.7376   13.2421 H       1  LIG1        0.0497
     37 H          18.1226   -8.2106   13.1733 H       1  LIG1        0.0497
     38 H          18.3957   -7.2486   14.7447 H       1  LIG1        0.0428
     39 H          17.1015   -6.4049   15.5610 H       1  LIG1        0.0428
     40 H          18.2147   -5.5224   14.5436 H       1  LIG1        0.0428
     41 H          13.8240   -3.1235   14.1969 H       1  LIG1        0.0830
     42 H          12.7425   -3.2361   11.9626 H       1  LIG1        0.0633
     43 H          13.4879   -4.9729   10.3539 H       1  LIG1        0.0619
     44 H          15.2805   -6.5367   11.0168 H       1  LIG1        0.0652
@<TRIPOS>BOND
     1     1     8    1
     2     1    10    1
     3     2     8    2
     4     3     9    2
     5     4    15    1
     6     4    18    1
     7     5     8   am
     8     5     9   am
     9     5    26    1
    10     6    19    1
    11     6    20    1
    12     6    21    1
    13     7    21   ar
    14     7    22   ar
    15     9    10    1
    16    10    11    1
    17    11    12    1
    18    12    13   ar
    19    12    17   ar
    20    13    14   ar
    21    14    15   ar
    22    15    16   ar
    23    16    17   ar
    24    18    19    1
    25    21    25   ar
    26    22    23   ar
    27    23    24   ar
    28    24    25   ar
    29    10    27    1
    30    11    28    1
    31    11    29    1
    32    13    30    1
    33    14    31    1
    34    16    32    1
    35    17    33    1
    36    18    34    1
    37    18    35    1
    38    19    36    1
    39    19    37    1
    40    20    38    1
    41    20    39    1
    42    20    40    1
    43    22    41    1
    44    23    42    1
    45    24    43    1
    46    25    44    1
