@<TRIPOS>MOLECULE
pose3.pdb
 44 46 0 0 0
SMALL
GASTEIGER

@<TRIPOS>ATOM
      1  S1         7.9550  -12.5330    8.5970 S.3     1  LIG1       -0.0542
      2  O1         9.0460  -14.5450    7.2160 O.2     1  LIG1       -0.2625
      3  O2        11.7010  -11.3480    8.8700 O.2     1  LIG1       -0.2741
      4  O3        13.8620   -8.5520   13.0580 O.3     1  LIG1       -0.4904
      5  N1        10.5250  -13.0800    7.9870 N.am    1  LIG1       -0.2463
      6  N2        15.2180   -5.6840   12.8340 N.pl3   1  LIG1       -0.3150
      7  N3        12.6340   -5.9690   13.0300 N.ar    1  LIG1       -0.2403
      8  C1         9.2810  -13.5090    7.8370 C.2     1  LIG1        0.2789
      9  C2        10.6280  -11.9480    8.6960 C.2     1  LIG1        0.2336
     10  C3         9.2910  -11.4280    9.2430 C.3     1  LIG1        0.0945
     11  C4         9.2410  -11.2290   10.8170 C.3     1  LIG1       -0.0069
     12  C5        10.4170  -10.5560   11.4970 C.ar    1  LIG1       -0.0456
     13  C6        11.7080  -11.2110   11.6680 C.ar    1  LIG1       -0.0551
     14  C7        12.8060  -10.4760   12.2070 C.ar    1  LIG1       -0.0197
     15  C8        12.6500   -9.0930   12.5980 C.ar    1  LIG1        0.1206
     16  C9        11.3250   -8.4740   12.4960 C.ar    1  LIG1       -0.0197
     17  C10       10.2190   -9.1970   11.9470 C.ar    1  LIG1       -0.0551
     18  C11       15.1560   -8.3100   12.4000 C.3     1  LIG1        0.1052
     19  C12       15.7220   -7.0910   13.1580 C.3     1  LIG1        0.0474
     20  C13       16.3950   -4.7090   12.9820 C.3     1  LIG1        0.0021
     21  C14       13.7140   -5.2520   12.5330 C.ar    1  LIG1        0.1211
     22  C15       11.3300   -5.6390   12.8310 C.ar    1  LIG1        0.0297
     23  C16       10.9760   -4.4730   12.0500 C.ar    1  LIG1       -0.0435
     24  C17       12.0260   -3.6760   11.4900 C.ar    1  LIG1       -0.0571
     25  C18       13.3900   -4.0580   11.7240 C.ar    1  LIG1       -0.0217
     26  H1        11.3040  -13.5510    7.6110 H       1  LIG1        0.1583
     27 H           9.1464  -10.4283    8.8900 H       1  LIG1        0.0515
     28 H           9.1353  -12.1994   11.2552 H       1  LIG1        0.0329
     29 H           8.4264  -10.5525   10.9705 H       1  LIG1        0.0329
     30 H          11.8272  -12.2006   11.4008 H       1  LIG1        0.0621
     31 H          13.7224  -10.9372   12.3190 H       1  LIG1        0.0654
     32 H          11.1883   -7.5051   12.8241 H       1  LIG1        0.0654
     33 H           9.2903   -8.7530   11.8732 H       1  LIG1        0.0621
     34 H          15.0217   -8.0866   11.3622 H       1  LIG1        0.0712
     35 H          15.8056   -9.1596   12.4321 H       1  LIG1        0.0712
     36 H          15.5274   -7.2565   14.1971 H       1  LIG1        0.0497
     37 H          16.7451   -7.0623   12.8458 H       1  LIG1        0.0497
     38 H          17.2910   -5.2591   13.1808 H       1  LIG1        0.0428
     39 H          16.2018   -4.0371   13.7920 H       1  LIG1        0.0428
     40 H          16.5123   -4.1515   12.0763 H       1  LIG1        0.0428
     41 H          10.5860   -6.2253   13.2406 H       1  LIG1        0.0830
     42 H           9.9866   -4.2209   11.8996 H       1  LIG1        0.0633
     43 H          11.8054   -2.8398   10.9268 H       1  LIG1        0.0619
     44 H          14.1538   -3.4920   11.3224 H       1  LIG1        0.0652
@<TRIPOS>BOND
     1     1     8    1
     2     1    10    1
     3     2     8    2
     4     3     9    2
     5     4    15    1
     6     4    18    1
     7     5     8   am
     8     5     9   am
     9     5    26    1
    10     6    19    1
    11     6    20    1
    12     6    21    1
    13     7    21   ar
    14     7    22   ar
    15     9    10    1
    16    10    11    1
    17    11    12    1
    18    12    13   ar
    19    12    17   ar
    20    13    14   ar
    21    14    15   ar
    22    15    16   ar
    23    16    17   ar
    24    18    19    1
    25    21    25   ar
    26    22    23   ar
    27    23    24   ar
    28    24    25   ar
    29    10    27    1
    30    11    28    1
    31    11    29    1
    32    13    30    1
    33    14    31    1
    34    16    32    1
    35    17    33    1
    36    18    34    1
    37    18    35    1
    38    19    36    1
    39    19    37    1
    40    20    38    1
    41    20    39    1
    42    20    40    1
    43    22    41    1
    44    23    42    1
    45    24    43    1
    46    25    44    1
