@<TRIPOS>MOLECULE
pose4.pdb
 44 46 0 0 0
SMALL
GASTEIGER

@<TRIPOS>ATOM
      1  S1        14.6690   -7.4380   13.8660 S.3     1  LIG1       -0.0542
      2  O1        12.9730   -5.4040   13.5030 O.2     1  LIG1       -0.2625
      3  O2        16.8990   -5.3730   11.3590 O.2     1  LIG1       -0.2741
      4  O3        11.6610  -11.0370    9.7970 O.3     1  LIG1       -0.4904
      5  N1        14.8480   -5.2290   12.3280 N.am    1  LIG1       -0.2463
      6  N2         8.8150  -10.3450   10.5070 N.pl3   1  LIG1       -0.3150
      7  N3        10.7050   -8.5710   10.7970 N.ar    1  LIG1       -0.2403
      8  C1        14.0710   -5.8650   13.1910 C.2     1  LIG1        0.2789
      9  C2        16.0050   -5.8560   12.0740 C.2     1  LIG1        0.2336
     10  C3        16.1520   -7.2100   12.7820 C.3     1  LIG1        0.0945
     11  C4        16.4280   -8.4430   11.8210 C.3     1  LIG1       -0.0069
     12  C5        15.2400   -9.1970   11.2560 C.ar    1  LIG1       -0.0456
     13  C6        14.4240  -10.0970   12.0620 C.ar    1  LIG1       -0.0551
     14  C7        13.2500  -10.6800   11.4980 C.ar    1  LIG1       -0.0197
     15  C8        12.8680  -10.3990   10.1320 C.ar    1  LIG1        0.1206
     16  C9        13.7430   -9.5580    9.3100 C.ar    1  LIG1       -0.0197
     17  C10       14.9160   -8.9590    9.8670 C.ar    1  LIG1       -0.0551
     18  C11       10.7030  -10.8380    8.6970 C.3     1  LIG1        0.1052
     19  C12        9.3420  -11.1790    9.3400 C.3     1  LIG1        0.0474
     20  C13        7.3170  -10.6440   10.6710 C.3     1  LIG1        0.0021
     21  C14        9.6170   -9.2440   11.3360 C.ar    1  LIG1        0.1211
     22  C15       11.4130   -7.6060   11.4420 C.ar    1  LIG1        0.0297
     23  C16       11.0620   -7.2110   12.7890 C.ar    1  LIG1       -0.0435
     24  C17        9.9560   -7.8570   13.4290 C.ar    1  LIG1       -0.0571
     25  C18        9.2330   -8.8710   12.7150 C.ar    1  LIG1       -0.0217
     26  H1        14.5980   -4.3730   11.9110 H       1  LIG1        0.1583
     27 H          17.0427   -7.1881   13.3745 H       1  LIG1        0.0515
     28 H          17.0170   -9.1470   12.3709 H       1  LIG1        0.0329
     29 H          16.8957   -8.0079   10.9626 H       1  LIG1        0.0329
     30 H          14.6939  -10.3112   13.0348 H       1  LIG1        0.0621
     31 H          12.6669  -11.3094   12.0716 H       1  LIG1        0.0654
     32 H          13.5098   -9.3963    8.3178 H       1  LIG1        0.0654
     33 H          15.5246   -8.3634    9.2840 H       1  LIG1        0.0621
     34 H          10.9160  -11.4958    7.8804 H       1  LIG1        0.0712
     35 H          10.7357   -9.8494    8.2890 H       1  LIG1        0.0712
     36 H           8.6097  -11.1184    8.5622 H       1  LIG1        0.0497
     37 H           9.5137  -12.1380    9.7824 H       1  LIG1        0.0497
     38 H           7.0332  -11.4247    9.9966 H       1  LIG1        0.0428
     39 H           6.7514   -9.7620   10.4539 H       1  LIG1        0.0428
     40 H           7.1231  -10.9535   11.6767 H       1  LIG1        0.0428
     41 H          12.2080   -7.1511   10.9665 H       1  LIG1        0.0830
     42 H          11.5984   -6.4780   13.2789 H       1  LIG1        0.0633
     43 H           9.6826   -7.5974   14.3897 H       1  LIG1        0.0619
     44 H           8.4365   -9.3450   13.1688 H       1  LIG1        0.0652
@<TRIPOS>BOND
     1     1     8    1
     2     1    10    1
     3     2     8    2
     4     3     9    2
     5     4    15    1
     6     4    18    1
     7     5     8   am
     8     5     9   am
     9     5    26    1
    10     6    19    1
    11     6    20    1
    12     6    21    1
    13     7    21   ar
    14     7    22   ar
    15     9    10    1
    16    10    11    1
    17    11    12    1
    18    12    13   ar
    19    12    17   ar
    20    13    14   ar
    21    14    15   ar
    22    15    16   ar
    23    16    17   ar
    24    18    19    1
    25    21    25   ar
    26    22    23   ar
    27    23    24   ar
    28    24    25   ar
    29    10    27    1
    30    11    28    1
    31    11    29    1
    32    13    30    1
    33    14    31    1
    34    16    32    1
    35    17    33    1
    36    18    34    1
    37    18    35    1
    38    19    36    1
    39    19    37    1
    40    20    38    1
    41    20    39    1
    42    20    40    1
    43    22    41    1
    44    23    42    1
    45    24    43    1
    46    25    44    1
