@<TRIPOS>MOLECULE
pose0.pdb
 44 46 0 0 0
SMALL
GASTEIGER

@<TRIPOS>ATOM
      1  S1        11.0570   -3.1000   12.2460 S.3     1  LIG1       -0.0542
      2  O1         8.8490   -4.4810   11.6450 O.2     1  LIG1       -0.2625
      3  O2        12.0450   -4.0320    8.5480 O.2     1  LIG1       -0.2741
      4  O3        14.9750   -9.3630   10.8770 O.3     1  LIG1       -0.4904
      5  N1        10.3330   -4.4010    9.9960 N.am    1  LIG1       -0.2463
      6  N2        12.3230  -12.1160   10.9250 N.pl3   1  LIG1       -0.3150
      7  N3        10.4610  -11.1190    9.3960 N.ar    1  LIG1       -0.2403
      8  C1         9.9360   -4.0910   11.2200 C.2     1  LIG1        0.2789
      9  C2        11.5420   -3.9190    9.6780 C.2     1  LIG1        0.2336
     10  C3        12.2390   -3.1700   10.8230 C.3     1  LIG1        0.0945
     11  C4        13.6710   -3.7300   11.2170 C.3     1  LIG1       -0.0069
     12  C5        13.9310   -5.2160   11.0660 C.ar    1  LIG1       -0.0456
     13  C6        14.8730   -5.7550   10.0920 C.ar    1  LIG1       -0.0551
     14  C7        15.1590   -7.1520   10.0870 C.ar    1  LIG1       -0.0197
     15  C8        14.5160   -8.0430   11.0260 C.ar    1  LIG1        0.1206
     16  C9        13.5100   -7.4990   11.9440 C.ar    1  LIG1       -0.0197
     17  C10       13.2230   -6.0980   11.9660 C.ar    1  LIG1       -0.0551
     18  C11       14.3790  -10.5590   10.2590 C.3     1  LIG1        0.1052
     19  C12       13.1680  -10.8640   11.1660 C.3     1  LIG1        0.0474
     20  C13       13.0230  -13.3030   11.6010 C.3     1  LIG1        0.0021
     21  C14       11.0190  -12.2290   10.0150 C.ar    1  LIG1        0.1211
     22  C15        9.3660  -11.1530    8.5890 C.ar    1  LIG1        0.0297
     23  C16        8.6860  -12.4020    8.3240 C.ar    1  LIG1       -0.0435
     24  C17        9.1870  -13.6000    8.9270 C.ar    1  LIG1       -0.0571
     25  C18       10.3460  -13.5230    9.7720 C.ar    1  LIG1       -0.0217
     26  H1         9.7890   -4.9380    9.3750 H       1  LIG1        0.1583
     27 H          12.4734   -2.1809   10.4888 H       1  LIG1        0.0515
     28 H          13.8353   -3.4830   12.2451 H       1  LIG1        0.0329
     29 H          14.3346   -3.2741   10.5122 H       1  LIG1        0.0329
     30 H          15.3299   -5.1292    9.4104 H       1  LIG1        0.0621
     31 H          15.8335   -7.5316    9.4044 H       1  LIG1        0.0654
     32 H          13.0037   -8.1339   12.5809 H       1  LIG1        0.0654
     33 H          12.5175   -5.7207   12.6179 H       1  LIG1        0.0621
     34 H          15.0714  -11.3747   10.2576 H       1  LIG1        0.0712
     35 H          14.1069  -10.4088    9.2351 H       1  LIG1        0.0712
     36 H          13.5418  -10.9324   12.1663 H       1  LIG1        0.0497
     37 H          12.4904  -10.0659   10.9450 H       1  LIG1        0.0497
     38 H          13.8708  -12.9511   12.1508 H       1  LIG1        0.0428
     39 H          13.3455  -13.9989   10.8549 H       1  LIG1        0.0428
     40 H          12.3406  -13.7865   12.2685 H       1  LIG1        0.0428
     41 H           9.0176  -10.2803    8.1623 H       1  LIG1        0.0830
     42 H           7.8555  -12.4290    7.7119 H       1  LIG1        0.0633
     43 H           8.7222  -14.5056    8.7570 H       1  LIG1        0.0619
     44 H          10.7130  -14.3801   10.2143 H       1  LIG1        0.0652
@<TRIPOS>BOND
     1     1     8    1
     2     1    10    1
     3     2     8    2
     4     3     9    2
     5     4    15    1
     6     4    18    1
     7     5     8   am
     8     5     9   am
     9     5    26    1
    10     6    19    1
    11     6    20    1
    12     6    21    1
    13     7    21   ar
    14     7    22   ar
    15     9    10    1
    16    10    11    1
    17    11    12    1
    18    12    13   ar
    19    12    17   ar
    20    13    14   ar
    21    14    15   ar
    22    15    16   ar
    23    16    17   ar
    24    18    19    1
    25    21    25   ar
    26    22    23   ar
    27    23    24   ar
    28    24    25   ar
    29    10    27    1
    30    11    28    1
    31    11    29    1
    32    13    30    1
    33    14    31    1
    34    16    32    1
    35    17    33    1
    36    18    34    1
    37    18    35    1
    38    19    36    1
    39    19    37    1
    40    20    38    1
    41    20    39    1
    42    20    40    1
    43    22    41    1
    44    23    42    1
    45    24    43    1
    46    25    44    1
