@<TRIPOS>MOLECULE
pose8.pdb
 44 46 0 0 0
SMALL
GASTEIGER

@<TRIPOS>ATOM
      1  S1        11.0020   -3.5130   10.3830 S.3     1  LIG1       -0.0542
      2  O1        13.2950   -3.8340    9.0470 O.2     1  LIG1       -0.2625
      3  O2        13.3500   -3.9310   13.5190 O.2     1  LIG1       -0.2741
      4  O3        11.5020  -10.3920   11.7610 O.3     1  LIG1       -0.4904
      5  N1        13.5180   -3.9510   11.2520 N.am    1  LIG1       -0.2463
      6  N2        10.8100  -12.3280    9.7160 N.pl3   1  LIG1       -0.3150
      7  N3         9.5930  -10.0900    9.1570 N.ar    1  LIG1       -0.2403
      8  C1        12.7820   -3.7850   10.1650 C.2     1  LIG1        0.2789
      9  C2        12.8220   -3.8850   12.3960 C.2     1  LIG1        0.2336
     10  C3        11.3100   -3.7030   12.1980 C.3     1  LIG1        0.0945
     11  C4        10.4050   -4.8150   12.8800 C.3     1  LIG1       -0.0069
     12  C5        10.6370   -6.2650   12.5010 C.ar    1  LIG1       -0.0456
     13  C6        11.8310   -6.7120   11.7940 C.ar    1  LIG1       -0.0551
     14  C7        12.0410   -8.1070   11.5780 C.ar    1  LIG1       -0.0197
     15  C8        11.0770   -9.0810   12.0370 C.ar    1  LIG1        0.1206
     16  C9         9.8430   -8.6100   12.6730 C.ar    1  LIG1       -0.0197
     17  C10        9.6260   -7.2150   12.9060 C.ar    1  LIG1       -0.0551
     18  C11       12.6580  -10.9280   11.0250 C.3     1  LIG1        0.1052
     19  C12       12.1390  -12.2710   10.4700 C.3     1  LIG1        0.0474
     20  C13       10.8850  -13.4790    8.7020 C.3     1  LIG1        0.0021
     21  C14        9.5970  -11.3010    9.8370 C.ar    1  LIG1        0.1211
     22  C15        8.5790   -9.1850    9.1980 C.ar    1  LIG1        0.0297
     23  C16        7.3960   -9.4390    9.9910 C.ar    1  LIG1       -0.0435
     24  C17        7.3150  -10.6610   10.7330 C.ar    1  LIG1       -0.0571
     25  C18        8.4060  -11.5920   10.6630 C.ar    1  LIG1       -0.0217
     26  H1        14.4900   -4.1080   11.2240 H       1  LIG1        0.1583
     27 H          11.0040   -2.8197   12.7187 H       1  LIG1        0.0515
     28 H           9.3875   -4.5846   12.6422 H       1  LIG1        0.0329
     29 H          10.6670   -4.7686   13.9164 H       1  LIG1        0.0329
     30 H          12.5200   -6.0241   11.4519 H       1  LIG1        0.0621
     31 H          12.8920   -8.4242   11.0879 H       1  LIG1        0.0654
     32 H           9.1225   -9.2925   12.9560 H       1  LIG1        0.0654
     33 H           8.7569   -6.8908   13.3584 H       1  LIG1        0.0621
     34 H          13.4909  -11.0806   11.6792 H       1  LIG1        0.0712
     35 H          13.0078  -10.2675   10.2594 H       1  LIG1        0.0712
     36 H          12.8889  -12.6385    9.8010 H       1  LIG1        0.0497
     37 H          11.9432  -12.8414   11.3538 H       1  LIG1        0.0497
     38 H          11.8027  -14.0128    8.8356 H       1  LIG1        0.0428
     39 H          10.8442  -13.0827    7.7089 H       1  LIG1        0.0428
     40 H          10.0604  -14.1435    8.8550 H       1  LIG1        0.0428
     41 H           8.6540   -8.3086    8.6583 H       1  LIG1        0.0830
     42 H           6.6256   -8.7530   10.0213 H       1  LIG1        0.0633
     43 H           6.4848  -10.8695   11.3095 H       1  LIG1        0.0619
     44 H           8.3581  -12.4747   11.1956 H       1  LIG1        0.0652
@<TRIPOS>BOND
     1     1     8    1
     2     1    10    1
     3     2     8    2
     4     3     9    2
     5     4    15    1
     6     4    18    1
     7     5     8   am
     8     5     9   am
     9     5    26    1
    10     6    19    1
    11     6    20    1
    12     6    21    1
    13     7    21   ar
    14     7    22   ar
    15     9    10    1
    16    10    11    1
    17    11    12    1
    18    12    13   ar
    19    12    17   ar
    20    13    14   ar
    21    14    15   ar
    22    15    16   ar
    23    16    17   ar
    24    18    19    1
    25    21    25   ar
    26    22    23   ar
    27    23    24   ar
    28    24    25   ar
    29    10    27    1
    30    11    28    1
    31    11    29    1
    32    13    30    1
    33    14    31    1
    34    16    32    1
    35    17    33    1
    36    18    34    1
    37    18    35    1
    38    19    36    1
    39    19    37    1
    40    20    38    1
    41    20    39    1
    42    20    40    1
    43    22    41    1
    44    23    42    1
    45    24    43    1
    46    25    44    1
