@<TRIPOS>MOLECULE
pose9.pdb
 44 46 0 0 0
SMALL
GASTEIGER

@<TRIPOS>ATOM
      1  S1         9.4490  -10.7490    8.8190 S.3     1  LIG1       -0.0542
      2  O1         6.9360   -9.8920    9.1300 O.2     1  LIG1       -0.2625
      3  O2         8.6610  -12.7110   12.1440 O.2     1  LIG1       -0.2741
      4  O3        11.5630   -5.7280   12.5140 O.3     1  LIG1       -0.4904
      5  N1         7.6250  -11.2510   10.7430 N.am    1  LIG1       -0.2463
      6  N2        12.2720   -3.0530   12.3860 N.pl3   1  LIG1       -0.3150
      7  N3        14.1550   -4.0290   10.8700 N.ar    1  LIG1       -0.2403
      8  C1         7.8240  -10.5950    9.6110 C.2     1  LIG1        0.2789
      9  C2         8.6850  -11.9630   11.1520 C.2     1  LIG1        0.2336
     10  C3         9.9240  -11.8100   10.2600 C.3     1  LIG1        0.0945
     11  C4        11.2320  -11.3110   11.0080 C.3     1  LIG1       -0.0069
     12  C5        11.3680   -9.8330   11.3140 C.ar    1  LIG1       -0.0456
     13  C6        10.3130   -8.8690   11.0230 C.ar    1  LIG1       -0.0551
     14  C7        10.4600   -7.5140   11.4480 C.ar    1  LIG1       -0.0197
     15  C8        11.6470   -7.0830   12.1510 C.ar    1  LIG1        0.1206
     16  C9        12.7330   -8.0450   12.3620 C.ar    1  LIG1       -0.0197
     17  C10       12.5940   -9.4080   11.9510 C.ar    1  LIG1       -0.0551
     18  C11       10.4480   -4.8940   12.9930 C.3     1  LIG1        0.1052
     19  C12       11.1130   -3.5280   13.2610 C.3     1  LIG1        0.0474
     20  C13       11.8270   -1.7790   11.6520 C.3     1  LIG1        0.0021
     21  C14       13.6590   -3.8010   12.1460 C.ar    1  LIG1        0.1211
     22  C15       15.3410   -4.6380   10.6000 C.ar    1  LIG1        0.0297
     23  C16       16.1890   -5.1090   11.6730 C.ar    1  LIG1       -0.0435
     24  C17       15.7540   -4.9220   13.0250 C.ar    1  LIG1       -0.0571
     25  C18       14.4960   -4.2750   13.2690 C.ar    1  LIG1       -0.0217
     26  H1         6.7760  -11.2190   11.2400 H       1  LIG1        0.1583
     27 H          10.2199  -12.7811    9.9219 H       1  LIG1        0.0515
     28 H          12.0685  -11.5865   10.4002 H       1  LIG1        0.0329
     29 H          11.1775  -11.7749   11.9707 H       1  LIG1        0.0329
     30 H           9.4657   -9.1644   10.5132 H       1  LIG1        0.0621
     31 H           9.7094   -6.8338   11.2508 H       1  LIG1        0.0654
     32 H          13.6082   -7.7351   12.8125 H       1  LIG1        0.0654
     33 H          13.3608  -10.0807   12.1076 H       1  LIG1        0.0621
     34 H          10.0262   -5.2971   13.8899 H       1  LIG1        0.0712
     35 H           9.6399   -4.8353   12.2941 H       1  LIG1        0.0712
     36 H          10.3431   -2.7894   13.1800 H       1  LIG1        0.0497
     37 H          11.5699   -3.6629   14.2191 H       1  LIG1        0.0497
     38 H          10.8583   -1.4867   12.0001 H       1  LIG1        0.0428
     39 H          11.7854   -1.9696   10.5999 H       1  LIG1        0.0428
     40 H          12.5273   -0.9933   11.8447 H       1  LIG1        0.0428
     41 H          15.6387   -4.7652    9.6201 H       1  LIG1        0.0830
     42 H          17.0892   -5.5704   11.4687 H       1  LIG1        0.0633
     43 H          16.3365   -5.2477   13.8121 H       1  LIG1        0.0619
     44 H          14.1721   -4.1391   14.2394 H       1  LIG1        0.0652
@<TRIPOS>BOND
     1     1     8    1
     2     1    10    1
     3     2     8    2
     4     3     9    2
     5     4    15    1
     6     4    18    1
     7     5     8   am
     8     5     9   am
     9     5    26    1
    10     6    19    1
    11     6    20    1
    12     6    21    1
    13     7    21   ar
    14     7    22   ar
    15     9    10    1
    16    10    11    1
    17    11    12    1
    18    12    13   ar
    19    12    17   ar
    20    13    14   ar
    21    14    15   ar
    22    15    16   ar
    23    16    17   ar
    24    18    19    1
    25    21    25   ar
    26    22    23   ar
    27    23    24   ar
    28    24    25   ar
    29    10    27    1
    30    11    28    1
    31    11    29    1
    32    13    30    1
    33    14    31    1
    34    16    32    1
    35    17    33    1
    36    18    34    1
    37    18    35    1
    38    19    36    1
    39    19    37    1
    40    20    38    1
    41    20    39    1
    42    20    40    1
    43    22    41    1
    44    23    42    1
    45    24    43    1
    46    25    44    1
