@<TRIPOS>MOLECULE
pose7.pdb
 44 46 0 0 0
SMALL
GASTEIGER

@<TRIPOS>ATOM
      1  S1        10.8700   -7.2080   -2.4130 S.3     1  LIG1       -0.0542
      2  O1         8.4240   -6.7000   -3.3650 O.2     1  LIG1       -0.2625
      3  O2         9.4460  -10.8680   -2.1050 O.2     1  LIG1       -0.2741
      4  O3         8.7190   -6.2950    3.8860 O.3     1  LIG1       -0.4904
      5  N1         8.7290   -8.8130   -2.7580 N.am    1  LIG1       -0.2463
      6  N2         8.3850   -5.1000    6.9440 N.pl3   1  LIG1       -0.3150
      7  N3         9.7680   -3.3380    5.6080 N.ar    1  LIG1       -0.2403
      8  C1         9.1650   -7.5730   -2.9130 C.2     1  LIG1        0.2789
      9  C2         9.6410   -9.6490   -2.2430 C.2     1  LIG1        0.2336
     10  C3        10.9710   -8.9770   -1.8770 C.3     1  LIG1        0.0945
     11  C4        11.4200   -9.1550   -0.3650 C.3     1  LIG1       -0.0069
     12  C5        10.6240   -8.4430    0.7120 C.ar    1  LIG1       -0.0456
     13  C6        10.4290   -9.0020    2.0440 C.ar    1  LIG1       -0.0551
     14  C7         9.7740   -8.2240    3.0460 C.ar    1  LIG1       -0.0197
     15  C8         9.2880   -6.8950    2.7500 C.ar    1  LIG1        0.1206
     16  C9         9.4180   -6.3810    1.3840 C.ar    1  LIG1       -0.0197
     17  C10       10.0840   -7.1460    0.3740 C.ar    1  LIG1       -0.0551
     18  C11        7.8830   -6.8220    4.9770 C.3     1  LIG1        0.1052
     19  C12        8.6650   -6.4320    6.2490 C.3     1  LIG1        0.0474
     20  C13        7.0480   -5.2210    7.6890 C.3     1  LIG1        0.0021
     21  C14        9.2370   -3.7580    6.8200 C.ar    1  LIG1        0.1211
     22  C15       10.4810   -2.1940    5.4320 C.ar    1  LIG1        0.0297
     23  C16       10.7430   -1.3110    6.5470 C.ar    1  LIG1       -0.0435
     24  C17       10.2400   -1.6670    7.8400 C.ar    1  LIG1       -0.0571
     25  C18        9.4910   -2.8840    7.9840 C.ar    1  LIG1       -0.0217
     26  H1         7.8170   -9.0960   -2.9990 H       1  LIG1        0.1583
     27 H          11.7586   -9.4773   -2.4007 H       1  LIG1        0.0515
     28 H          12.4302   -8.8098   -0.2922 H       1  LIG1        0.0329
     29 H          11.2632  -10.1943   -0.1645 H       1  LIG1        0.0329
     30 H          10.7623   -9.9542    2.2614 H       1  LIG1        0.0621
     31 H           9.6460   -8.6148    3.9925 H       1  LIG1        0.0654
     32 H           9.0248   -5.4567    1.1473 H       1  LIG1        0.0654
     33 H          10.1774   -6.7755   -0.5846 H       1  LIG1        0.0621
     34 H           7.7804   -7.8844    4.9015 H       1  LIG1        0.0712
     35 H           6.8864   -6.4329    4.9642 H       1  LIG1        0.0712
     36 H           8.4825   -7.2006    6.9707 H       1  LIG1        0.0497
     37 H           9.6676   -6.3162    5.8936 H       1  LIG1        0.0497
     38 H           6.6902   -6.2269    7.6184 H       1  LIG1        0.0428
     39 H           6.3335   -4.5566    7.2497 H       1  LIG1        0.0428
     40 H           7.1886   -4.9638    8.7181 H       1  LIG1        0.0428
     41 H          10.8385   -1.9535    4.4943 H       1  LIG1        0.0830
     42 H          11.2820   -0.4411    6.4136 H       1  LIG1        0.0633
     43 H          10.4131   -1.0586    8.6554 H       1  LIG1        0.0619
     44 H           9.1259   -3.1512    8.9115 H       1  LIG1        0.0652
@<TRIPOS>BOND
     1     1     8    1
     2     1    10    1
     3     2     8    2
     4     3     9    2
     5     4    15    1
     6     4    18    1
     7     5     8   am
     8     5     9   am
     9     5    26    1
    10     6    19    1
    11     6    20    1
    12     6    21    1
    13     7    21   ar
    14     7    22   ar
    15     9    10    1
    16    10    11    1
    17    11    12    1
    18    12    13   ar
    19    12    17   ar
    20    13    14   ar
    21    14    15   ar
    22    15    16   ar
    23    16    17   ar
    24    18    19    1
    25    21    25   ar
    26    22    23   ar
    27    23    24   ar
    28    24    25   ar
    29    10    27    1
    30    11    28    1
    31    11    29    1
    32    13    30    1
    33    14    31    1
    34    16    32    1
    35    17    33    1
    36    18    34    1
    37    18    35    1
    38    19    36    1
    39    19    37    1
    40    20    38    1
    41    20    39    1
    42    20    40    1
    43    22    41    1
    44    23    42    1
    45    24    43    1
    46    25    44    1
