FLP.pdb
  rDOCK(R)          3D
libRbt.so/2013.1/901 2013/11/27
 19 20  0  0  0  0  0  0  0  0999 V2000
   27.2606   20.7073   19.2411 C   0  0  0  0  0  0
   25.8670   20.8501   19.0613 C   0  0  0  0  0  0
   25.3536   21.1195   17.7967 C   0  0  0  0  0  0
   26.2306   21.2452   16.7179 C   0  0  0  0  0  0
   27.6187   21.1005   16.9050 C   0  0  0  0  0  0
   28.1291   20.8314   18.1708 C   0  0  0  0  0  0
   23.8659   21.3092   17.5904 C   0  0  0  0  0  0
   23.3294   22.5594   17.1980 C   0  0  0  0  0  0
   21.9227   22.6966   16.9917 C   0  0  0  0  0  0
   21.0682   21.5572   17.1870 C   0  0  0  0  0  0
   21.6125   20.3359   17.5654 C   0  0  0  0  0  0
   22.9891   20.2018   17.7717 C   0  0  0  0  0  0
   19.5617   21.6753   17.0798 C   0  0  0  0  0  0
   19.1691   22.3893   15.7885 C   0  0  0  0  0  0
   19.0627   22.4603   18.2924 C   0  0  0  0  0  0
   18.2995   21.9506   19.0752 O   0  0  0  0  0  0
   19.4297   23.7003   18.4806 O   0  0  0  0  0  0
   23.4816   18.9971   18.1652 F   0  0  0  0  0  0
   19.6524   24.2395   17.7473 H   0  0  0  0  0  0
  1  2  2  0  0  0
  2  3  1  0  0  0
  3  7  1  0  0  0
  4  3  2  0  0  0
  5  4  1  0  0  0
  6  5  2  0  0  0
  6  1  1  0  0  0
  7  8  2  0  0  0
  7 12  1  0  0  0
  8  9  1  0  0  0
  9 10  2  0  0  0
 10 13  1  0  0  0
 11 10  1  0  0  0
 12 11  2  0  0  0
 13 14  1  0  0  0
 15 17  1  0  0  0
 15 13  1  0  0  0
 16 15  2  0  0  0
 17 19  1  0  0  0
 18 12  1  0  0  0
M  END
>  <CHROM.0>
9.20321724,-174.14430364,17.35359656,-84.63443956,-50.70220445,-67.99267744
45.48982375

>  <CHROM.1>
113.85055556,49.84859241,27.96852837,-118.71740313,22.88981539,21.42327131
17.74705737,0.19486289,-0.07568081,2.61214790

>  <FORMUL>
      FLP    C15 H13 F1 O2

>  <HET>
 FLP  A 701      18

>  <HETNAM>
     FLP FLURBIPROFEN

>  <Name>
FLP.pdb

>  <RI>
0

>  <Rbt.Current_Directory>
/home/malgorzata/Desktop/rDOCK_IFD/Wyniki/4b_COX2

>  <Rbt.Executable>
rbdock ($Id: //depot/dev/client3/rdock/2013.1/src/exe/rbdock.cxx#4 $)

>  <Rbt.Library>
libRbt.so (2013.1, Build901 2013/11/27)

>  <Rbt.Parameter_File>
/home/malgorzata/Desktop/rDock_2013.1_src/data/scripts/soft_docking.prm

>  <Rbt.Receptor>
cavity.prm

>  <SCORE>
-35.0533

>  <SCORE.INTER>
-24.4178

>  <SCORE.INTER.CONST>
1

>  <SCORE.INTER.POLAR>
-0.96242

>  <SCORE.INTER.REPUL>
0

>  <SCORE.INTER.ROT>
3

>  <SCORE.INTER.VDW>
-29.5455

>  <SCORE.INTER.norm>
-1.35654

>  <SCORE.INTRA>
-0.609937

>  <SCORE.INTRA.DIHEDRAL>
5.46002

>  <SCORE.INTRA.DIHEDRAL.0>
5.47211

>  <SCORE.INTRA.POLAR>
0

>  <SCORE.INTRA.POLAR.0>
0

>  <SCORE.INTRA.REPUL>
0

>  <SCORE.INTRA.REPUL.0>
0

>  <SCORE.INTRA.VDW>
-1.70194

>  <SCORE.INTRA.VDW.0>
0.722234

>  <SCORE.INTRA.norm>
-0.0338854

>  <SCORE.RESTR>
0

>  <SCORE.RESTR.CAVITY>
0

>  <SCORE.RESTR.norm>
0

>  <SCORE.SYSTEM>
-10.0256

>  <SCORE.SYSTEM.CONST>
0

>  <SCORE.SYSTEM.DIHEDRAL>
5.28095

>  <SCORE.SYSTEM.POLAR>
-3.54775

>  <SCORE.SYSTEM.REPUL>
0.837383

>  <SCORE.SYSTEM.VDW>
-4.7906

>  <SCORE.SYSTEM.norm>
-0.556976

>  <SCORE.heavy>
18

>  <SCORE.norm>
-1.9474

$$$$
FLP.pdb
  rDOCK(R)          3D
libRbt.so/2013.1/901 2013/11/27
 19 20  0  0  0  0  0  0  0  0999 V2000
   27.8031   21.0843   18.1648 C   0  0  0  0  0  0
   26.3969   21.0395   18.0402 C   0  0  0  0  0  0
   25.7758   21.6496   16.9552 C   0  0  0  0  0  0
   26.5582   22.3009   16.0000 C   0  0  0  0  0  0
   27.9596   22.3404   16.1307 C   0  0  0  0  0  0
   28.5778   21.7298   17.2170 C   0  0  0  0  0  0
   24.2678   21.6410   16.8222 C   0  0  0  0  0  0
   23.5877   22.6344   16.0767 C   0  0  0  0  0  0
   22.1655   22.5831   15.9547 C   0  0  0  0  0  0
   21.4422   21.5180   16.5943 C   0  0  0  0  0  0
   22.1264   20.5475   17.3160 C   0  0  0  0  0  0
   23.5184   20.5994   17.4396 C   0  0  0  0  0  0
   19.9279   21.4751   16.5799 C   0  0  0  0  0  0
   19.3704   22.5031   15.5982 C   0  0  0  0  0  0
   19.4342   21.7719   17.9954 C   0  0  0  0  0  0
   19.1023   20.8709   18.7256 O   0  0  0  0  0  0
   19.3356   23.0031   18.4224 O   0  0  0  0  0  0
   24.1502   19.6457   18.1744 F   0  0  0  0  0  0
   19.3912   23.1867   19.3396 H   0  0  0  0  0  0
  1  2  2  0  0  0
  2  3  1  0  0  0
  3  7  1  0  0  0
  4  3  2  0  0  0
  5  4  1  0  0  0
  6  5  2  0  0  0
  6  1  1  0  0  0
  7  8  2  0  0  0
  7 12  1  0  0  0
  8  9  1  0  0  0
  9 10  2  0  0  0
 10 13  1  0  0  0
 11 10  1  0  0  0
 12 11  2  0  0  0
 13 14  1  0  0  0
 15 17  1  0  0  0
 15 13  1  0  0  0
 16 15  2  0  0  0
 17 19  1  0  0  0
 18 12  1  0  0  0
M  END
>  <CHROM.0>
4.54608428,-155.23357369,45.55273161,-8.03019461,161.87584827,-162.36746010
-65.07973073

>  <CHROM.1>
155.28584523,11.33872847,-154.16908926,-99.44762286,23.29306705,21.58510795
17.17955926,-0.00462236,-0.05777042,2.28764844

>  <FORMUL>
      FLP    C15 H13 F1 O2

>  <HET>
 FLP  A 701      18

>  <HETNAM>
     FLP FLURBIPROFEN

>  <Name>
FLP.pdb

>  <RI>
0

>  <Rbt.Current_Directory>
/home/malgorzata/Desktop/rDOCK_IFD/Wyniki/4b_COX2

>  <Rbt.Executable>
rbdock ($Id: //depot/dev/client3/rdock/2013.1/src/exe/rbdock.cxx#4 $)

>  <Rbt.Library>
libRbt.so (2013.1, Build901 2013/11/27)

>  <Rbt.Parameter_File>
/home/malgorzata/Desktop/rDock_2013.1_src/data/scripts/soft_docking.prm

>  <Rbt.Receptor>
cavity.prm

>  <SCORE>
-25.8531

>  <SCORE.INTER>
-22.6412

>  <SCORE.INTER.CONST>
1

>  <SCORE.INTER.POLAR>
-1.37848

>  <SCORE.INTER.REPUL>
0

>  <SCORE.INTER.ROT>
3

>  <SCORE.INTER.VDW>
-26.3543

>  <SCORE.INTER.norm>
-1.25784

>  <SCORE.INTRA>
2.01116

>  <SCORE.INTRA.DIHEDRAL>
1.97918

>  <SCORE.INTRA.DIHEDRAL.0>
5.47211

>  <SCORE.INTRA.POLAR>
0

>  <SCORE.INTRA.POLAR.0>
0

>  <SCORE.INTRA.REPUL>
0

>  <SCORE.INTRA.REPUL.0>
0

>  <SCORE.INTRA.VDW>
1.61533

>  <SCORE.INTRA.VDW.0>
0.722234

>  <SCORE.INTRA.norm>
0.111731

>  <SCORE.RESTR>
0

>  <SCORE.RESTR.CAVITY>
0

>  <SCORE.RESTR.norm>
0

>  <SCORE.SYSTEM>
-5.22313

>  <SCORE.SYSTEM.CONST>
0

>  <SCORE.SYSTEM.DIHEDRAL>
7.40669

>  <SCORE.SYSTEM.POLAR>
-2.17999

>  <SCORE.SYSTEM.REPUL>
0.647244

>  <SCORE.SYSTEM.VDW>
-4.75072

>  <SCORE.SYSTEM.norm>
-0.290174

>  <SCORE.heavy>
18

>  <SCORE.norm>
-1.43628

$$$$
FLP.pdb
  rDOCK(R)          3D
libRbt.so/2013.1/901 2013/11/27
 19 20  0  0  0  0  0  0  0  0999 V2000
   18.7912   23.1292   17.7477 C   0  0  0  0  0  0
   20.0530   22.5173   17.9161 C   0  0  0  0  0  0
   20.5808   21.7231   16.9032 C   0  0  0  0  0  0
   19.8493   21.5424   15.7280 C   0  0  0  0  0  0
   18.5925   22.1565   15.5672 C   0  0  0  0  0  0
   18.0671   22.9498   16.5819 C   0  0  0  0  0  0
   21.9162   21.0321   17.0788 C   0  0  0  0  0  0
   23.0991   21.5565   16.5036 C   0  0  0  0  0  0
   24.3455   20.8895   16.7078 C   0  0  0  0  0  0
   24.3804   19.6893   17.4982 C   0  0  0  0  0  0
   23.2111   19.1925   18.0611 C   0  0  0  0  0  0
   21.9896   19.8424   17.8581 C   0  0  0  0  0  0
   25.6572   18.8902   17.6604 C   0  0  0  0  0  0
   26.8241   19.5965   16.9742 C   0  0  0  0  0  0
   25.4330   17.5118   17.0397 C   0  0  0  0  0  0
   25.8205   16.5194   17.6054 O   0  0  0  0  0  0
   24.8484   17.3915   15.8771 O   0  0  0  0  0  0
   20.8630   19.3125   18.4047 F   0  0  0  0  0  0
   24.8596   16.5681   15.4301 H   0  0  0  0  0  0
  1  2  2  0  0  0
  2  3  1  0  0  0
  3  7  1  0  0  0
  4  3  2  0  0  0
  5  4  1  0  0  0
  6  5  2  0  0  0
  6  1  1  0  0  0
  7  8  2  0  0  0
  7 12  1  0  0  0
  8  9  1  0  0  0
  9 10  2  0  0  0
 10 13  1  0  0  0
 11 10  1  0  0  0
 12 11  2  0  0  0
 13 14  1  0  0  0
 15 17  1  0  0  0
 15 13  1  0  0  0
 16 15  2  0  0  0
 17 19  1  0  0  0
 18 12  1  0  0  0
M  END
>  <CHROM.0>
-3.37025171,-70.23974908,5.03284042,-42.46202571,-132.26629484,-69.53806173
60.87381972

>  <CHROM.1>
-100.61752124,4.01502727,168.36520127,-136.85244295,22.53097665,20.18227112
17.10699951,-2.56832648,-0.13210373,2.87857225

>  <FORMUL>
      FLP    C15 H13 F1 O2

>  <HET>
 FLP  A 701      18

>  <HETNAM>
     FLP FLURBIPROFEN

>  <Name>
FLP.pdb

>  <RI>
0

>  <Rbt.Current_Directory>
/home/malgorzata/Desktop/rDOCK_IFD/Wyniki/4b_COX2

>  <Rbt.Executable>
rbdock ($Id: //depot/dev/client3/rdock/2013.1/src/exe/rbdock.cxx#4 $)

>  <Rbt.Library>
libRbt.so (2013.1, Build901 2013/11/27)

>  <Rbt.Parameter_File>
/home/malgorzata/Desktop/rDock_2013.1_src/data/scripts/soft_docking.prm

>  <Rbt.Receptor>
cavity.prm

>  <SCORE>
-35.4466

>  <SCORE.INTER>
-25.8745

>  <SCORE.INTER.CONST>
1

>  <SCORE.INTER.POLAR>
-2.33618

>  <SCORE.INTER.REPUL>
0.147835

>  <SCORE.INTER.ROT>
3

>  <SCORE.INTER.VDW>
-27.0707

>  <SCORE.INTER.norm>
-1.43747

>  <SCORE.INTRA>
0.380801

>  <SCORE.INTRA.DIHEDRAL>
1.82799

>  <SCORE.INTRA.DIHEDRAL.0>
5.47211

>  <SCORE.INTRA.POLAR>
0

>  <SCORE.INTRA.POLAR.0>
0

>  <SCORE.INTRA.REPUL>
0

>  <SCORE.INTRA.REPUL.0>
0

>  <SCORE.INTRA.VDW>
0.0152025

>  <SCORE.INTRA.VDW.0>
0.722234

>  <SCORE.INTRA.norm>
0.0211556

>  <SCORE.RESTR>
0

>  <SCORE.RESTR.CAVITY>
0

>  <SCORE.RESTR.norm>
0

>  <SCORE.SYSTEM>
-9.95288

>  <SCORE.SYSTEM.CONST>
0

>  <SCORE.SYSTEM.DIHEDRAL>
3.95937

>  <SCORE.SYSTEM.POLAR>
-3.42649

>  <SCORE.SYSTEM.REPUL>
1.05078

>  <SCORE.SYSTEM.VDW>
-5.53641

>  <SCORE.SYSTEM.norm>
-0.552938

>  <SCORE.heavy>
18

>  <SCORE.norm>
-1.96926

$$$$
FLP.pdb
  rDOCK(R)          3D
libRbt.so/2013.1/901 2013/11/27
 19 20  0  0  0  0  0  0  0  0999 V2000
   26.0392   24.2223   11.0516 C   0  0  0  0  0  0
   26.1556   23.2626   12.0812 C   0  0  0  0  0  0
   25.0334   22.8909   12.8147 C   0  0  0  0  0  0
   23.8013   23.4767   12.5188 C   0  0  0  0  0  0
   23.6932   24.4321   11.4901 C   0  0  0  0  0  0
   24.8171   24.8021   10.7587 C   0  0  0  0  0  0
   25.1448   21.8890   13.9440 C   0  0  0  0  0  0
   25.7915   20.6423   13.7626 C   0  0  0  0  0  0
   25.8969   19.7299   14.8565 C   0  0  0  0  0  0
   25.3417   20.0928   16.1318 C   0  0  0  0  0  0
   24.7167   21.3233   16.2939 C   0  0  0  0  0  0
   24.6092   22.2154   15.2224 C   0  0  0  0  0  0
   25.3379   19.1211   17.2941 C   0  0  0  0  0  0
   26.6233   19.2513   18.1077 C   0  0  0  0  0  0
   25.2104   17.7078   16.7268 C   0  0  0  0  0  0
   26.1951   17.0914   16.4020 O   0  0  0  0  0  0
   24.0356   17.1611   16.5573 O   0  0  0  0  0  0
   23.9691   23.3997   15.4133 F   0  0  0  0  0  0
   23.9287   16.4611   15.9437 H   0  0  0  0  0  0
  1  2  2  0  0  0
  2  3  1  0  0  0
  3  7  1  0  0  0
  4  3  2  0  0  0
  5  4  1  0  0  0
  6  5  2  0  0  0
  6  1  1  0  0  0
  7  8  2  0  0  0
  7 12  1  0  0  0
  8  9  1  0  0  0
  9 10  2  0  0  0
 10 13  1  0  0  0
 11 10  1  0  0  0
 12 11  2  0  0  0
 13 14  1  0  0  0
 15 17  1  0  0  0
 15 13  1  0  0  0
 16 15  2  0  0  0
 17 19  1  0  0  0
 18 12  1  0  0  0
M  END
>  <CHROM.0>
41.21808366,-160.82978602,-20.96844898,-7.25762514,-143.92632247,-69.39315731
-78.38144367

>  <CHROM.1>
-50.52130808,89.00895640,157.55989706,87.44311472,25.11370697,21.18299847
14.61953776,-1.75500606,-1.10635821,2.26996431

>  <FORMUL>
      FLP    C15 H13 F1 O2

>  <HET>
 FLP  A 701      18

>  <HETNAM>
     FLP FLURBIPROFEN

>  <Name>
FLP.pdb

>  <RI>
0

>  <Rbt.Current_Directory>
/home/malgorzata/Desktop/rDOCK_IFD/Wyniki/4b_COX2

>  <Rbt.Executable>
rbdock ($Id: //depot/dev/client3/rdock/2013.1/src/exe/rbdock.cxx#4 $)

>  <Rbt.Library>
libRbt.so (2013.1, Build901 2013/11/27)

>  <Rbt.Parameter_File>
/home/malgorzata/Desktop/rDock_2013.1_src/data/scripts/soft_docking.prm

>  <Rbt.Receptor>
cavity.prm

>  <SCORE>
-30.6287

>  <SCORE.INTER>
-22.7659

>  <SCORE.INTER.CONST>
1

>  <SCORE.INTER.POLAR>
-2.89735

>  <SCORE.INTER.REPUL>
0.138636

>  <SCORE.INTER.ROT>
3

>  <SCORE.INTER.VDW>
-22.0081

>  <SCORE.INTER.norm>
-1.26477

>  <SCORE.INTRA>
-0.286092

>  <SCORE.INTRA.DIHEDRAL>
2.91873

>  <SCORE.INTRA.DIHEDRAL.0>
5.47211

>  <SCORE.INTRA.POLAR>
0

>  <SCORE.INTRA.POLAR.0>
0

>  <SCORE.INTRA.REPUL>
0

>  <SCORE.INTRA.REPUL.0>
0

>  <SCORE.INTRA.VDW>
-0.869838

>  <SCORE.INTRA.VDW.0>
0.722234

>  <SCORE.INTRA.norm>
-0.015894

>  <SCORE.RESTR>
0

>  <SCORE.RESTR.CAVITY>
0

>  <SCORE.RESTR.norm>
0

>  <SCORE.SYSTEM>
-7.57673

>  <SCORE.SYSTEM.CONST>
0

>  <SCORE.SYSTEM.DIHEDRAL>
8.39511

>  <SCORE.SYSTEM.POLAR>
-3.09

>  <SCORE.SYSTEM.REPUL>
0.680432

>  <SCORE.SYSTEM.VDW>
-4.67043

>  <SCORE.SYSTEM.norm>
-0.420929

>  <SCORE.heavy>
18

>  <SCORE.norm>
-1.70159

$$$$
FLP.pdb
  rDOCK(R)          3D
libRbt.so/2013.1/901 2013/11/27
 19 20  0  0  0  0  0  0  0  0999 V2000
   25.7086   23.5447   10.3724 C   0  0  0  0  0  0
   25.8663   22.7973   11.5604 C   0  0  0  0  0  0
   24.8228   22.7218   12.4774 C   0  0  0  0  0  0
   23.6279   23.3908   12.2063 C   0  0  0  0  0  0
   23.4781   24.1331   11.0192 C   0  0  0  0  0  0
   24.5234   24.2071   10.1044 C   0  0  0  0  0  0
   24.9848   21.9535   13.7716 C   0  0  0  0  0  0
   25.7974   20.7963   13.8453 C   0  0  0  0  0  0
   25.9444   20.1083   15.0884 C   0  0  0  0  0  0
   25.2613   20.6038   16.2522 C   0  0  0  0  0  0
   24.4734   21.7450   16.1634 C   0  0  0  0  0  0
   24.3254   22.4167   14.9458 C   0  0  0  0  0  0
   25.3031   19.8546   17.5682 C   0  0  0  0  0  0
   26.3983   20.4162   18.4718 C   0  0  0  0  0  0
   25.5708   18.3811   17.2639 C   0  0  0  0  0  0
   26.4861   17.8057   17.7988 O   0  0  0  0  0  0
   24.8340   17.7345   16.3996 O   0  0  0  0  0  0
   23.5267   23.5157   14.8929 F   0  0  0  0  0  0
   24.0853   18.1498   16.0189 H   0  0  0  0  0  0
  1  2  2  0  0  0
  2  3  1  0  0  0
  3  7  1  0  0  0
  4  3  2  0  0  0
  5  4  1  0  0  0
  6  5  2  0  0  0
  6  1  1  0  0  0
  7  8  2  0  0  0
  7 12  1  0  0  0
  8  9  1  0  0  0
  9 10  2  0  0  0
 10 13  1  0  0  0
 11 10  1  0  0  0
 12 11  2  0  0  0
 13 14  1  0  0  0
 15 17  1  0  0  0
 15 13  1  0  0  0
 16 15  2  0  0  0
 17 19  1  0  0  0
 18 12  1  0  0  0
M  END
>  <CHROM.0>
8.84328995,-54.98648323,-137.77592883,-50.19571572,-6.91376859,-74.40950408
54.27426993

>  <CHROM.1>
-32.68016782,95.88358790,-5.66470063,126.31756754,25.03767910,21.39483364
14.56045688,-1.87834915,-1.02972058,1.96845323

>  <FORMUL>
      FLP    C15 H13 F1 O2

>  <HET>
 FLP  A 701      18

>  <HETNAM>
     FLP FLURBIPROFEN

>  <Name>
FLP.pdb

>  <RI>
0

>  <Rbt.Current_Directory>
/home/malgorzata/Desktop/rDOCK_IFD/Wyniki/4b_COX2

>  <Rbt.Executable>
rbdock ($Id: //depot/dev/client3/rdock/2013.1/src/exe/rbdock.cxx#4 $)

>  <Rbt.Library>
libRbt.so (2013.1, Build901 2013/11/27)

>  <Rbt.Parameter_File>
/home/malgorzata/Desktop/rDock_2013.1_src/data/scripts/soft_docking.prm

>  <Rbt.Receptor>
cavity.prm

>  <SCORE>
-29.1965

>  <SCORE.INTER>
-19.9857

>  <SCORE.INTER.CONST>
1

>  <SCORE.INTER.POLAR>
-1.24824

>  <SCORE.INTER.REPUL>
0.288613

>  <SCORE.INTER.ROT>
3

>  <SCORE.INTER.VDW>
-25.5847

>  <SCORE.INTER.norm>
-1.11031

>  <SCORE.INTRA>
0.377587

>  <SCORE.INTRA.DIHEDRAL>
-2.44109

>  <SCORE.INTRA.DIHEDRAL.0>
5.47211

>  <SCORE.INTRA.POLAR>
0

>  <SCORE.INTRA.POLAR.0>
0

>  <SCORE.INTRA.REPUL>
0

>  <SCORE.INTRA.REPUL.0>
0

>  <SCORE.INTRA.VDW>
0.865805

>  <SCORE.INTRA.VDW.0>
0.722234

>  <SCORE.INTRA.norm>
0.0209771

>  <SCORE.RESTR>
0

>  <SCORE.RESTR.CAVITY>
0

>  <SCORE.RESTR.norm>
0

>  <SCORE.SYSTEM>
-9.58847

>  <SCORE.SYSTEM.CONST>
0

>  <SCORE.SYSTEM.DIHEDRAL>
3.87009

>  <SCORE.SYSTEM.POLAR>
-2.68902

>  <SCORE.SYSTEM.REPUL>
0.64611

>  <SCORE.SYSTEM.VDW>
-5.6114

>  <SCORE.SYSTEM.norm>
-0.532693

>  <SCORE.heavy>
18

>  <SCORE.norm>
-1.62203

$$$$
FLP.pdb
  rDOCK(R)          3D
libRbt.so/2013.1/901 2013/11/27
 19 20  0  0  0  0  0  0  0  0999 V2000
   27.3278   22.5182   17.1795 C   0  0  0  0  0  0
   25.9342   22.5593   16.9537 C   0  0  0  0  0  0
   25.1179   21.5547   17.4635 C   0  0  0  0  0  0
   25.6937   20.5148   18.1954 C   0  0  0  0  0  0
   27.0837   20.4813   18.4170 C   0  0  0  0  0  0
   27.8975   21.4870   17.9057 C   0  0  0  0  0  0
   23.6266   21.5638   17.2035 C   0  0  0  0  0  0
   23.0372   22.5040   16.3238 C   0  0  0  0  0  0
   21.6293   22.4697   16.0855 C   0  0  0  0  0  0
   20.8275   21.4761   16.7461 C   0  0  0  0  0  0
   21.4236   20.5566   17.6008 C   0  0  0  0  0  0
   22.8013   20.5922   17.8380 C   0  0  0  0  0  0
   19.3192   21.4610   16.6062 C   0  0  0  0  0  0
   18.9047   20.7228   15.3355 C   0  0  0  0  0  0
   18.8354   22.9099   16.5591 C   0  0  0  0  0  0
   18.4062   23.3751   15.5323 O   0  0  0  0  0  0
   18.9085   23.6716   17.6185 O   0  0  0  0  0  0
   23.3444   19.6915   18.6997 F   0  0  0  0  0  0
   19.6032   24.2951   17.7002 H   0  0  0  0  0  0
  1  2  2  0  0  0
  2  3  1  0  0  0
  3  7  1  0  0  0
  4  3  2  0  0  0
  5  4  1  0  0  0
  6  5  2  0  0  0
  6  1  1  0  0  0
  7  8  2  0  0  0
  7 12  1  0  0  0
  8  9  1  0  0  0
  9 10  2  0  0  0
 10 13  1  0  0  0
 11 10  1  0  0  0
 12 11  2  0  0  0
 13 14  1  0  0  0
 15 17  1  0  0  0
 15 13  1  0  0  0
 16 15  2  0  0  0
 17 19  1  0  0  0
 18 12  1  0  0  0
M  END
>  <CHROM.0>
11.28709686,-87.35832760,-50.87700683,-47.18770562,-5.76230172,54.77167305
40.19909233

>  <CHROM.1>
6.78847922,84.27625161,100.70867480,109.44049715,22.66338782,21.67352444
17.13771077,-0.21209979,-0.11990832,-0.42987672

>  <FORMUL>
      FLP    C15 H13 F1 O2

>  <HET>
 FLP  A 701      18

>  <HETNAM>
     FLP FLURBIPROFEN

>  <Name>
FLP.pdb

>  <RI>
0

>  <Rbt.Current_Directory>
/home/malgorzata/Desktop/rDOCK_IFD/Wyniki/4b_COX2

>  <Rbt.Executable>
rbdock ($Id: //depot/dev/client3/rdock/2013.1/src/exe/rbdock.cxx#4 $)

>  <Rbt.Library>
libRbt.so (2013.1, Build901 2013/11/27)

>  <Rbt.Parameter_File>
/home/malgorzata/Desktop/rDock_2013.1_src/data/scripts/soft_docking.prm

>  <Rbt.Receptor>
cavity.prm

>  <SCORE>
-25.9802

>  <SCORE.INTER>
-23.6845

>  <SCORE.INTER.CONST>
1

>  <SCORE.INTER.POLAR>
-0.800695

>  <SCORE.INTER.REPUL>
0

>  <SCORE.INTER.ROT>
3

>  <SCORE.INTER.VDW>
-29.3622

>  <SCORE.INTER.norm>
-1.31581

>  <SCORE.INTRA>
5.04825

>  <SCORE.INTRA.DIHEDRAL>
18.4463

>  <SCORE.INTRA.DIHEDRAL.0>
5.47211

>  <SCORE.INTRA.POLAR>
0

>  <SCORE.INTRA.POLAR.0>
0

>  <SCORE.INTRA.REPUL>
0

>  <SCORE.INTRA.REPUL.0>
0

>  <SCORE.INTRA.VDW>
1.359

>  <SCORE.INTRA.VDW.0>
0.722234

>  <SCORE.INTRA.norm>
0.280458

>  <SCORE.RESTR>
0.289332

>  <SCORE.RESTR.CAVITY>
0.289332

>  <SCORE.RESTR.norm>
0.016074

>  <SCORE.SYSTEM>
-7.63321

>  <SCORE.SYSTEM.CONST>
0

>  <SCORE.SYSTEM.DIHEDRAL>
8.6321

>  <SCORE.SYSTEM.POLAR>
-3.13437

>  <SCORE.SYSTEM.REPUL>
0.64611

>  <SCORE.SYSTEM.VDW>
-4.52293

>  <SCORE.SYSTEM.norm>
-0.424067

>  <SCORE.heavy>
18

>  <SCORE.norm>
-1.44334

$$$$
FLP.pdb
  rDOCK(R)          3D
libRbt.so/2013.1/901 2013/11/27
 19 20  0  0  0  0  0  0  0  0999 V2000
   21.8208   21.1987   19.1092 C   0  0  0  0  0  0
   22.3752   21.7924   17.9537 C   0  0  0  0  0  0
   23.3917   21.1445   17.2593 C   0  0  0  0  0  0
   23.8508   19.9089   17.7192 C   0  0  0  0  0  0
   23.2925   19.3231   18.8714 C   0  0  0  0  0  0
   22.2763   19.9735   19.5639 C   0  0  0  0  0  0
   24.0212   21.7805   16.0383 C   0  0  0  0  0  0
   25.3885   22.1485   16.0207 C   0  0  0  0  0  0
   25.9543   22.7269   14.8436 C   0  0  0  0  0  0
   25.1226   22.9281   13.6885 C   0  0  0  0  0  0
   23.7845   22.5547   13.7209 C   0  0  0  0  0  0
   23.2286   21.9923   14.8743 C   0  0  0  0  0  0
   25.6479   23.6291   12.4525 C   0  0  0  0  0  0
   25.3550   25.1262   12.5184 C   0  0  0  0  0  0
   24.9667   23.0089   11.2332 C   0  0  0  0  0  0
   23.7808   23.1485   11.0620 O   0  0  0  0  0  0
   25.6509   22.2952   10.3787 O   0  0  0  0  0  0
   21.9096   21.6622   14.8760 F   0  0  0  0  0  0
   25.2056   21.7946    9.7236 H   0  0  0  0  0  0
  1  2  2  0  0  0
  2  3  1  0  0  0
  3  7  1  0  0  0
  4  3  2  0  0  0
  5  4  1  0  0  0
  6  5  2  0  0  0
  6  1  1  0  0  0
  7  8  2  0  0  0
  7 12  1  0  0  0
  8  9  1  0  0  0
  9 10  2  0  0  0
 10 13  1  0  0  0
 11 10  1  0  0  0
 12 11  2  0  0  0
 13 14  1  0  0  0
 15 17  1  0  0  0
 15 13  1  0  0  0
 16 15  2  0  0  0
 17 19  1  0  0  0
 18 12  1  0  0  0
M  END
>  <CHROM.0>
-33.17279912,-175.65414467,-14.79753132,123.34949841,-37.88350489,-67.08592120
48.84253651

>  <CHROM.1>
116.26467585,-92.19380746,169.08152881,66.51843726,23.96973961,22.04901804
14.97450266,1.89084300,0.26836797,1.87011375

>  <FORMUL>
      FLP    C15 H13 F1 O2

>  <HET>
 FLP  A 701      18

>  <HETNAM>
     FLP FLURBIPROFEN

>  <Name>
FLP.pdb

>  <RI>
0

>  <Rbt.Current_Directory>
/home/malgorzata/Desktop/rDOCK_IFD/Wyniki/4b_COX2

>  <Rbt.Executable>
rbdock ($Id: //depot/dev/client3/rdock/2013.1/src/exe/rbdock.cxx#4 $)

>  <Rbt.Library>
libRbt.so (2013.1, Build901 2013/11/27)

>  <Rbt.Parameter_File>
/home/malgorzata/Desktop/rDock_2013.1_src/data/scripts/soft_docking.prm

>  <Rbt.Receptor>
cavity.prm

>  <SCORE>
-26.3185

>  <SCORE.INTER>
-15.7005

>  <SCORE.INTER.CONST>
1

>  <SCORE.INTER.POLAR>
-0.289224

>  <SCORE.INTER.REPUL>
0

>  <SCORE.INTER.ROT>
3

>  <SCORE.INTER.VDW>
-23.1172

>  <SCORE.INTER.norm>
-0.872252

>  <SCORE.INTRA>
-0.280447

>  <SCORE.INTRA.DIHEDRAL>
2.28728

>  <SCORE.INTRA.DIHEDRAL.0>
5.47211

>  <SCORE.INTRA.POLAR>
0

>  <SCORE.INTRA.POLAR.0>
0

>  <SCORE.INTRA.REPUL>
0

>  <SCORE.INTRA.REPUL.0>
0

>  <SCORE.INTRA.VDW>
-0.737904

>  <SCORE.INTRA.VDW.0>
0.722234

>  <SCORE.INTRA.norm>
-0.0155804

>  <SCORE.RESTR>
0.297394

>  <SCORE.RESTR.CAVITY>
0.297394

>  <SCORE.RESTR.norm>
0.0165219

>  <SCORE.SYSTEM>
-10.6349

>  <SCORE.SYSTEM.CONST>
0

>  <SCORE.SYSTEM.DIHEDRAL>
5.06548

>  <SCORE.SYSTEM.POLAR>
-3.43606

>  <SCORE.SYSTEM.REPUL>
0.649287

>  <SCORE.SYSTEM.VDW>
-4.73147

>  <SCORE.SYSTEM.norm>
-0.590828

>  <SCORE.heavy>
18

>  <SCORE.norm>
-1.46214

$$$$
FLP.pdb
  rDOCK(R)          3D
libRbt.so/2013.1/901 2013/11/27
 19 20  0  0  0  0  0  0  0  0999 V2000
   28.7891   23.7883   15.2546 C   0  0  0  0  0  0
   27.4285   23.5312   15.5330 C   0  0  0  0  0  0
   27.0730   22.4278   16.3020 C   0  0  0  0  0  0
   28.0744   21.5863   16.7899 C   0  0  0  0  0  0
   29.4287   21.8497   16.5089 C   0  0  0  0  0  0
   29.7810   22.9537   15.7393 C   0  0  0  0  0  0
   25.6183   22.1172   16.5827 C   0  0  0  0  0  0
   25.1607   21.8543   17.8967 C   0  0  0  0  0  0
   23.7769   21.5859   18.1276 C   0  0  0  0  0  0
   22.8648   21.5865   17.0166 C   0  0  0  0  0  0
   23.3299   21.8535   15.7346 C   0  0  0  0  0  0
   24.6852   22.1121   15.5069 C   0  0  0  0  0  0
   21.4083   21.2090   17.1933 C   0  0  0  0  0  0
   20.5586   22.4511   17.4511 C   0  0  0  0  0  0
   21.3110   20.2454   18.3755 C   0  0  0  0  0  0
   21.0058   19.0921   18.1971 O   0  0  0  0  0  0
   21.5257   20.6630   19.5951 O   0  0  0  0  0  0
   25.1066   22.3448   14.2354 F   0  0  0  0  0  0
   21.0844   20.2557   20.3143 H   0  0  0  0  0  0
  1  2  2  0  0  0
  2  3  1  0  0  0
  3  7  1  0  0  0
  4  3  2  0  0  0
  5  4  1  0  0  0
  6  5  2  0  0  0
  6  1  1  0  0  0
  7  8  2  0  0  0
  7 12  1  0  0  0
  8  9  1  0  0  0
  9 10  2  0  0  0
 10 13  1  0  0  0
 11 10  1  0  0  0
 12 11  2  0  0  0
 13 14  1  0  0  0
 15 17  1  0  0  0
 15 13  1  0  0  0
 16 15  2  0  0  0
 17 19  1  0  0  0
 18 12  1  0  0  0
M  END
>  <CHROM.0>
30.79399542,159.34766536,-30.57980666,158.94252345,38.84869684,-56.48456638
54.78627585

>  <CHROM.1>
-130.51843651,92.86713748,149.65074343,-112.06805209,24.70906680,21.81291671
16.78998164,0.40195491,-0.08677572,-1.06642876

>  <FORMUL>
      FLP    C15 H13 F1 O2

>  <HET>
 FLP  A 701      18

>  <HETNAM>
     FLP FLURBIPROFEN

>  <Name>
FLP.pdb

>  <RI>
0

>  <Rbt.Current_Directory>
/home/malgorzata/Desktop/rDOCK_IFD/Wyniki/4b_COX2

>  <Rbt.Executable>
rbdock ($Id: //depot/dev/client3/rdock/2013.1/src/exe/rbdock.cxx#4 $)

>  <Rbt.Library>
libRbt.so (2013.1, Build901 2013/11/27)

>  <Rbt.Parameter_File>
/home/malgorzata/Desktop/rDock_2013.1_src/data/scripts/soft_docking.prm

>  <Rbt.Receptor>
cavity.prm

>  <SCORE>
-31.247

>  <SCORE.INTER>
-21.6114

>  <SCORE.INTER.CONST>
1

>  <SCORE.INTER.POLAR>
-1.31461

>  <SCORE.INTER.REPUL>
0

>  <SCORE.INTER.ROT>
3

>  <SCORE.INTER.VDW>
-25.5417

>  <SCORE.INTER.norm>
-1.20063

>  <SCORE.INTRA>
-0.299611

>  <SCORE.INTRA.DIHEDRAL>
4.46221

>  <SCORE.INTRA.DIHEDRAL.0>
5.47211

>  <SCORE.INTRA.POLAR>
0

>  <SCORE.INTRA.POLAR.0>
0

>  <SCORE.INTRA.REPUL>
0

>  <SCORE.INTRA.REPUL.0>
0

>  <SCORE.INTRA.VDW>
-1.19205

>  <SCORE.INTRA.VDW.0>
0.722234

>  <SCORE.INTRA.norm>
-0.016645

>  <SCORE.RESTR>
0

>  <SCORE.RESTR.CAVITY>
0

>  <SCORE.RESTR.norm>
0

>  <SCORE.SYSTEM>
-9.33605

>  <SCORE.SYSTEM.CONST>
0

>  <SCORE.SYSTEM.DIHEDRAL>
6.94782

>  <SCORE.SYSTEM.POLAR>
-3.48632

>  <SCORE.SYSTEM.REPUL>
0.745076

>  <SCORE.SYSTEM.VDW>
-4.68184

>  <SCORE.SYSTEM.norm>
-0.518669

>  <SCORE.heavy>
18

>  <SCORE.norm>
-1.73595

$$$$
FLP.pdb
  rDOCK(R)          3D
libRbt.so/2013.1/901 2013/11/27
 19 20  0  0  0  0  0  0  0  0999 V2000
   24.3081   23.8456    9.8275 C   0  0  0  0  0  0
   24.4385   23.2212   11.0876 C   0  0  0  0  0  0
   25.6087   23.3789   11.8234 C   0  0  0  0  0  0
   26.6425   24.1576   11.3004 C   0  0  0  0  0  0
   26.5046   24.7777   10.0438 C   0  0  0  0  0  0
   25.3335   24.6178    9.3102 C   0  0  0  0  0  0
   25.7800   22.6903   13.1606 C   0  0  0  0  0  0
   24.8912   21.6730   13.5853 C   0  0  0  0  0  0
   25.0957   21.0299   14.8442 C   0  0  0  0  0  0
   26.2065   21.4274   15.6655 C   0  0  0  0  0  0
   27.0730   22.4226   15.2299 C   0  0  0  0  0  0
   26.8711   23.0559   13.9995 C   0  0  0  0  0  0
   26.4083   20.8484   17.0508 C   0  0  0  0  0  0
   26.2436   21.9310   18.1149 C   0  0  0  0  0  0
   27.8146   20.2535   17.1131 C   0  0  0  0  0  0
   27.9886   19.1492   17.5661 O   0  0  0  0  0  0
   28.8482   20.9424   16.7069 O   0  0  0  0  0  0
   27.7259   24.0421   13.6185 F   0  0  0  0  0  0
   29.7120   20.5925   16.8043 H   0  0  0  0  0  0
  1  2  2  0  0  0
  2  3  1  0  0  0
  3  7  1  0  0  0
  4  3  2  0  0  0
  5  4  1  0  0  0
  6  5  2  0  0  0
  6  1  1  0  0  0
  7  8  2  0  0  0
  7 12  1  0  0  0
  8  9  1  0  0  0
  9 10  2  0  0  0
 10 13  1  0  0  0
 11 10  1  0  0  0
 12 11  2  0  0  0
 13 14  1  0  0  0
 15 17  1  0  0  0
 15 13  1  0  0  0
 16 15  2  0  0  0
 17 19  1  0  0  0
 18 12  1  0  0  0
M  END
>  <CHROM.0>
-37.91840841,148.80104563,36.20345740,-26.08661794,-19.16302174,-59.01047798
49.42928810

>  <CHROM.1>
12.45050098,-114.21018069,175.74042373,-132.68220796,26.41739109,22.39042685
14.00145051,1.84140888,-0.38620841,-0.98667925

>  <FORMUL>
      FLP    C15 H13 F1 O2

>  <HET>
 FLP  A 701      18

>  <HETNAM>
     FLP FLURBIPROFEN

>  <Name>
FLP.pdb

>  <RI>
0

>  <Rbt.Current_Directory>
/home/malgorzata/Desktop/rDOCK_IFD/Wyniki/4b_COX2

>  <Rbt.Executable>
rbdock ($Id: //depot/dev/client3/rdock/2013.1/src/exe/rbdock.cxx#4 $)

>  <Rbt.Library>
libRbt.so (2013.1, Build901 2013/11/27)

>  <Rbt.Parameter_File>
/home/malgorzata/Desktop/rDock_2013.1_src/data/scripts/soft_docking.prm

>  <Rbt.Receptor>
cavity.prm

>  <SCORE>
-30.0765

>  <SCORE.INTER>
-21.6741

>  <SCORE.INTER.CONST>
1

>  <SCORE.INTER.POLAR>
-0.86869

>  <SCORE.INTER.REPUL>
0

>  <SCORE.INTER.ROT>
3

>  <SCORE.INTER.VDW>
-27.1205

>  <SCORE.INTER.norm>
-1.20411

>  <SCORE.INTRA>
0.00403301

>  <SCORE.INTRA.DIHEDRAL>
-3.43973

>  <SCORE.INTRA.DIHEDRAL.0>
5.47211

>  <SCORE.INTRA.POLAR>
0

>  <SCORE.INTRA.POLAR.0>
0

>  <SCORE.INTRA.REPUL>
0

>  <SCORE.INTRA.REPUL.0>
0

>  <SCORE.INTRA.VDW>
0.691978

>  <SCORE.INTRA.VDW.0>
0.722234

>  <SCORE.INTRA.norm>
0.000224056

>  <SCORE.RESTR>
0

>  <SCORE.RESTR.CAVITY>
0

>  <SCORE.RESTR.norm>
0

>  <SCORE.SYSTEM>
-8.40646

>  <SCORE.SYSTEM.CONST>
0

>  <SCORE.SYSTEM.DIHEDRAL>
8.70586

>  <SCORE.SYSTEM.POLAR>
-3.00683

>  <SCORE.SYSTEM.REPUL>
0.64611

>  <SCORE.SYSTEM.VDW>
-5.76671

>  <SCORE.SYSTEM.norm>
-0.467025

>  <SCORE.heavy>
18

>  <SCORE.norm>
-1.67092

$$$$
FLP.pdb
  rDOCK(R)          3D
libRbt.so/2013.1/901 2013/11/27
 19 20  0  0  0  0  0  0  0  0999 V2000
   23.8567   23.7731   11.4193 C   0  0  0  0  0  0
   24.2425   23.3293   12.7034 C   0  0  0  0  0  0
   25.5902   23.2784   13.0451 C   0  0  0  0  0  0
   26.5463   23.6696   12.1062 C   0  0  0  0  0  0
   26.1537   24.1117   10.8283 C   0  0  0  0  0  0
   24.8055   24.1613   10.4894 C   0  0  0  0  0  0
   26.0246   22.7739   14.4046 C   0  0  0  0  0  0
   26.6749   23.6227   15.3328 C   0  0  0  0  0  0
   27.0518   23.1186   16.6150 C   0  0  0  0  0  0
   26.7639   21.7495   16.9454 C   0  0  0  0  0  0
   26.1187   20.9324   16.0250 C   0  0  0  0  0  0
   25.7532   21.4239   14.7678 C   0  0  0  0  0  0
   27.2323   21.1393   18.2505 C   0  0  0  0  0  0
   27.0053   22.1080   19.4087 C   0  0  0  0  0  0
   28.7197   20.8164   18.1132 C   0  0  0  0  0  0
   29.0817   19.6798   17.9335 O   0  0  0  0  0  0
   29.6188   21.7589   18.2193 O   0  0  0  0  0  0
   25.1455   20.5873   13.8850 F   0  0  0  0  0  0
   30.5233   21.5346   18.3168 H   0  0  0  0  0  0
  1  2  2  0  0  0
  2  3  1  0  0  0
  3  7  1  0  0  0
  4  3  2  0  0  0
  5  4  1  0  0  0
  6  5  2  0  0  0
  6  1  1  0  0  0
  7  8  2  0  0  0
  7 12  1  0  0  0
  8  9  1  0  0  0
  9 10  2  0  0  0
 10 13  1  0  0  0
 11 10  1  0  0  0
 12 11  2  0  0  0
 13 14  1  0  0  0
 15 17  1  0  0  0
 15 13  1  0  0  0
 16 15  2  0  0  0
 17 19  1  0  0  0
 18 12  1  0  0  0
M  END
>  <CHROM.0>
7.82370131,77.00688441,26.53574128,-11.71022748,173.02363492,-68.55068092
68.41905417

>  <CHROM.1>
-115.66711671,43.18728374,166.97390263,-103.25296170,26.52298628,22.25456502
15.11473113,2.15076342,-0.71136192,-0.81252237

>  <FORMUL>
      FLP    C15 H13 F1 O2

>  <HET>
 FLP  A 701      18

>  <HETNAM>
     FLP FLURBIPROFEN

>  <Name>
FLP.pdb

>  <RI>
0

>  <Rbt.Current_Directory>
/home/malgorzata/Desktop/rDOCK_IFD/Wyniki/4b_COX2

>  <Rbt.Executable>
rbdock ($Id: //depot/dev/client3/rdock/2013.1/src/exe/rbdock.cxx#4 $)

>  <Rbt.Library>
libRbt.so (2013.1, Build901 2013/11/27)

>  <Rbt.Parameter_File>
/home/malgorzata/Desktop/rDock_2013.1_src/data/scripts/soft_docking.prm

>  <Rbt.Receptor>
cavity.prm

>  <SCORE>
-31.4949

>  <SCORE.INTER>
-19.1207

>  <SCORE.INTER.CONST>
1

>  <SCORE.INTER.POLAR>
-0.737625

>  <SCORE.INTER.REPUL>
0

>  <SCORE.INTER.ROT>
3

>  <SCORE.INTER.VDW>
-25.0128

>  <SCORE.INTER.norm>
-1.06226

>  <SCORE.INTRA>
-1.06406

>  <SCORE.INTRA.DIHEDRAL>
1.34294

>  <SCORE.INTRA.DIHEDRAL.0>
5.47211

>  <SCORE.INTRA.POLAR>
0

>  <SCORE.INTRA.POLAR.0>
0

>  <SCORE.INTRA.REPUL>
0

>  <SCORE.INTRA.REPUL.0>
0

>  <SCORE.INTRA.VDW>
-1.33265

>  <SCORE.INTRA.VDW.0>
0.722234

>  <SCORE.INTRA.norm>
-0.0591144

>  <SCORE.RESTR>
0

>  <SCORE.RESTR.CAVITY>
0

>  <SCORE.RESTR.norm>
0

>  <SCORE.SYSTEM>
-11.3102

>  <SCORE.SYSTEM.CONST>
0

>  <SCORE.SYSTEM.DIHEDRAL>
3.44216

>  <SCORE.SYSTEM.POLAR>
-3.12006

>  <SCORE.SYSTEM.REPUL>
0.64611

>  <SCORE.SYSTEM.VDW>
-5.65357

>  <SCORE.SYSTEM.norm>
-0.628342

>  <SCORE.heavy>
18

>  <SCORE.norm>
-1.74972

$$$$
