RAL.pdb
  rDOCK(R)          3D
libRbt.so/2013.1/901 2013/11/27
 36 40  0  0  0  0  0  0  0  0999 V2000
   29.0321   -3.2314   28.1597 C   0  0  0  0  0  0
   27.7694   -3.3040   28.6890 C   0  0  0  0  0  0
   27.1777   -2.2474   29.3232 C   0  0  0  0  0  0
   25.8986   -2.4401   29.7824 O   0  0  0  0  0  0
   27.8701   -1.0355   29.4263 C   0  0  0  0  0  0
   29.1207   -0.9565   28.8647 C   0  0  0  0  0  0
   30.1945    0.2997   28.8623 S   0  0  0  0  0  0
   31.4271   -0.4434   27.9803 C   0  0  0  0  0  0
   32.7498    0.1901   27.7139 C   0  0  0  0  0  0
   33.8454   -0.5212   28.1632 C   0  0  0  0  0  0
   35.1095   -0.0341   27.8729 C   0  0  0  0  0  0
   35.2853    1.1521   27.1880 C   0  0  0  0  0  0
   36.5968    1.5604   26.9385 O   0  0  0  0  0  0
   34.1915    1.8367   26.7004 C   0  0  0  0  0  0
   32.9281    1.3317   26.9820 C   0  0  0  0  0  0
   29.7196   -2.0788   28.2244 C   0  0  0  0  0  0
   31.0598   -1.7845   27.7416 C   0  0  0  0  0  0
   31.8474   -2.7333   27.1179 C   0  0  0  0  0  0
   32.3298   -3.6557   27.7869 O   0  0  0  0  0  0
   32.1561   -2.6916   25.6843 C   0  0  0  0  0  0
   33.3540   -3.1851   25.2079 C   0  0  0  0  0  0
   33.6819   -3.1476   23.8665 C   0  0  0  0  0  0
   32.7836   -2.5655   22.9738 C   0  0  0  0  0  0
   31.5765   -2.0750   23.4388 C   0  0  0  0  0  0
   31.2618   -2.1500   24.7853 C   0  0  0  0  0  0
   32.8935   -2.4061   21.6240 O   0  0  0  0  0  0
   31.9910   -3.1519   20.8213 C   0  0  0  0  0  0
   31.8690   -2.5306   19.4555 C   0  0  0  0  0  0
   31.9931   -3.1547   18.1522 N   0  0  0  0  0  0
   31.1481   -4.3656   18.1218 C   0  0  0  0  0  0
   31.0749   -5.0383   16.7362 C   0  0  0  0  0  0
   32.5041   -5.4802   16.3826 C   0  0  0  0  0  0
   33.2900   -4.1389   16.2553 C   0  0  0  0  0  0
   33.3378   -3.5125   17.6599 C   0  0  0  0  0  0
   25.4255   -1.7272   30.1643 H   0  0  0  0  0  0
   36.8266    1.9124   26.1011 H   0  0  0  0  0  0
  1  2  2  0  0  0
  1 16  1  0  0  0
  2  3  1  0  0  0
  3  4  1  0  0  0
  3  5  2  0  0  0
  4 35  1  0  0  0
  5  6  1  0  0  0
  6  7  1  0  0  0
  6 16  2  0  0  0
  7  8  1  0  0  0
  8  9  1  0  0  0
  8 17  2  0  0  0
  9 10  2  0  0  0
  9 15  1  0  0  0
 10 11  1  0  0  0
 11 12  2  0  0  0
 12 13  1  0  0  0
 12 14  1  0  0  0
 13 36  1  0  0  0
 14 15  2  0  0  0
 16 17  1  0  0  0
 17 18  1  0  0  0
 18 19  2  0  0  0
 18 20  1  0  0  0
 20 21  2  0  0  0
 20 25  1  0  0  0
 21 22  1  0  0  0
 22 23  2  0  0  0
 23 24  1  0  0  0
 23 26  1  0  0  0
 24 25  2  0  0  0
 26 27  1  0  0  0
 27 28  1  0  0  0
 28 29  1  0  0  0
 29 30  1  0  0  0
 29 34  1  0  0  0
 30 31  1  0  0  0
 31 32  1  0  0  0
 32 33  1  0  0  0
 33 34  1  0  0  0
M  END
>  <CHROM.0>
78.79557982,-60.56480275,74.89253887

>  <CHROM.1>
-175.26659096,122.03686295,137.53635702,109.00861536,148.97835418,112.93595540
159.26079005,129.26855097,49.53889259,31.69316804,-1.92851653,24.89272012
1.76871050,0.45527716,1.20530379

>  <FORMUL>
      RAL    C28 H27 N1 O4 S1

>  <HET>
 RAL  A 600      34

>  <HETNAM>
     RAL RALOXIFENE

>  <Name>
RAL.pdb

>  <RI>
0

>  <Rbt.Current_Directory>
/home/malgorzata/Desktop/rDOCK_IFD/Wyniki/6a_estrogen_receptor

>  <Rbt.Executable>
rbdock ($Id: //depot/dev/client3/rdock/2013.1/src/exe/rbdock.cxx#4 $)

>  <Rbt.Library>
libRbt.so (2013.1, Build901 2013/11/27)

>  <Rbt.Parameter_File>
/home/malgorzata/Desktop/rDock_2013.1_src/data/scripts/soft_docking.prm

>  <Rbt.Receptor>
cavity.prm

>  <SCORE>
-35.1693

>  <SCORE.INTER>
-38.2037

>  <SCORE.INTER.CONST>
1

>  <SCORE.INTER.POLAR>
-1.79693

>  <SCORE.INTER.REPUL>
0

>  <SCORE.INTER.ROT>
7

>  <SCORE.INTER.VDW>
-44.4941

>  <SCORE.INTER.norm>
-1.12364

>  <SCORE.INTRA>
3.00955

>  <SCORE.INTRA.DIHEDRAL>
17.1891

>  <SCORE.INTRA.DIHEDRAL.0>
18.358

>  <SCORE.INTRA.POLAR>
0

>  <SCORE.INTRA.POLAR.0>
0

>  <SCORE.INTRA.REPUL>
0

>  <SCORE.INTRA.REPUL.0>
0

>  <SCORE.INTRA.VDW>
-0.428271

>  <SCORE.INTRA.VDW.0>
-1.94569

>  <SCORE.INTRA.norm>
0.0885163

>  <SCORE.RESTR>
0.708765

>  <SCORE.RESTR.CAVITY>
0.141753

>  <SCORE.RESTR.norm>
0.020846

>  <SCORE.SYSTEM>
-0.683914

>  <SCORE.SYSTEM.CONST>
0

>  <SCORE.SYSTEM.DIHEDRAL>
0.802671

>  <SCORE.SYSTEM.VDW>
-1.08525

>  <SCORE.SYSTEM.norm>
-0.0201151

>  <SCORE.heavy>
34

>  <SCORE.norm>
-1.03439

$$$$
RAL.pdb
  rDOCK(R)          3D
libRbt.so/2013.1/901 2013/11/27
 36 40  0  0  0  0  0  0  0  0999 V2000
   27.0868   -1.5125   26.8968 C   0  0  0  0  0  0
   25.7670   -1.1857   27.0730 C   0  0  0  0  0  0
   25.3344    0.1093   27.1409 C   0  0  0  0  0  0
   23.9837    0.3024   27.2896 O   0  0  0  0  0  0
   26.2621    1.1489   27.0088 C   0  0  0  0  0  0
   27.5778    0.8175   26.7979 C   0  0  0  0  0  0
   28.8993    1.7996   26.6544 S   0  0  0  0  0  0
   30.0632    0.5990   26.4234 C   0  0  0  0  0  0
   31.5239    0.8747   26.3133 C   0  0  0  0  0  0
   32.2957    0.3870   27.3500 C   0  0  0  0  0  0
   33.6713    0.5311   27.2695 C   0  0  0  0  0  0
   34.2673    1.1797   26.2059 C   0  0  0  0  0  0
   35.6602    1.2725   26.2103 O   0  0  0  0  0  0
   33.4991    1.6249   25.1503 C   0  0  0  0  0  0
   32.1218    1.4609   25.2319 C   0  0  0  0  0  0
   28.0029   -0.5408   26.7484 C   0  0  0  0  0  0
   29.4403   -0.6595   26.5602 C   0  0  0  0  0  0
   30.0832   -1.8819   26.5165 C   0  0  0  0  0  0
   30.3337   -2.4733   27.5742 O   0  0  0  0  0  0
   30.5025   -2.5147   25.2611 C   0  0  0  0  0  0
   30.7532   -1.7521   24.1382 C   0  0  0  0  0  0
   31.1350   -2.3176   22.9371 C   0  0  0  0  0  0
   31.2405   -3.7049   22.8539 C   0  0  0  0  0  0
   30.9994   -4.4787   23.9750 C   0  0  0  0  0  0
   30.6445   -3.8835   25.1740 C   0  0  0  0  0  0
   31.5850   -4.4789   21.7853 O   0  0  0  0  0  0
   31.5245   -3.8613   20.5087 C   0  0  0  0  0  0
   32.8170   -4.0686   19.7651 C   0  0  0  0  0  0
   34.0591   -3.3266   19.8649 N   0  0  0  0  0  0
   33.7582   -1.8825   19.7920 C   0  0  0  0  0  0
   34.9829   -0.9788   20.0387 C   0  0  0  0  0  0
   35.9909   -1.2836   18.9188 C   0  0  0  0  0  0
   36.3955   -2.7683   19.1732 C   0  0  0  0  0  0
   35.1447   -3.6250   18.9104 C   0  0  0  0  0  0
   23.6658    0.9458   27.8920 H   0  0  0  0  0  0
   36.0856    1.9588   25.7348 H   0  0  0  0  0  0
  1  2  2  0  0  0
  1 16  1  0  0  0
  2  3  1  0  0  0
  3  4  1  0  0  0
  3  5  2  0  0  0
  4 35  1  0  0  0
  5  6  1  0  0  0
  6  7  1  0  0  0
  6 16  2  0  0  0
  7  8  1  0  0  0
  8  9  1  0  0  0
  8 17  2  0  0  0
  9 10  2  0  0  0
  9 15  1  0  0  0
 10 11  1  0  0  0
 11 12  2  0  0  0
 12 13  1  0  0  0
 12 14  1  0  0  0
 13 36  1  0  0  0
 14 15  2  0  0  0
 16 17  1  0  0  0
 17 18  1  0  0  0
 18 19  2  0  0  0
 18 20  1  0  0  0
 20 21  2  0  0  0
 20 25  1  0  0  0
 21 22  1  0  0  0
 22 23  2  0  0  0
 23 24  1  0  0  0
 23 26  1  0  0  0
 24 25  2  0  0  0
 26 27  1  0  0  0
 27 28  1  0  0  0
 28 29  1  0  0  0
 29 30  1  0  0  0
 29 34  1  0  0  0
 30 31  1  0  0  0
 31 32  1  0  0  0
 32 33  1  0  0  0
 33 34  1  0  0  0
M  END
>  <CHROM.0>
-35.90073895,-60.56480275,126.72187362

>  <CHROM.1>
136.90498148,113.24555039,-155.68417392,100.99501118,25.17463687,-16.74951268
128.89737519,-82.48256884,-48.30948374,31.07116229,-1.11842295,24.41460979
2.37810816,0.34475361,0.83892995

>  <FORMUL>
      RAL    C28 H27 N1 O4 S1

>  <HET>
 RAL  A 600      34

>  <HETNAM>
     RAL RALOXIFENE

>  <Name>
RAL.pdb

>  <RI>
0

>  <Rbt.Current_Directory>
/home/malgorzata/Desktop/rDOCK_IFD/Wyniki/6a_estrogen_receptor

>  <Rbt.Executable>
rbdock ($Id: //depot/dev/client3/rdock/2013.1/src/exe/rbdock.cxx#4 $)

>  <Rbt.Library>
libRbt.so (2013.1, Build901 2013/11/27)

>  <Rbt.Parameter_File>
/home/malgorzata/Desktop/rDock_2013.1_src/data/scripts/soft_docking.prm

>  <Rbt.Receptor>
cavity.prm

>  <SCORE>
-26.4836

>  <SCORE.INTER>
-28.5138

>  <SCORE.INTER.CONST>
1

>  <SCORE.INTER.POLAR>
-2.01805

>  <SCORE.INTER.REPUL>
0.351288

>  <SCORE.INTER.ROT>
7

>  <SCORE.INTER.VDW>
-35.8089

>  <SCORE.INTER.norm>
-0.838641

>  <SCORE.INTRA>
2.4523

>  <SCORE.INTRA.DIHEDRAL>
17.6894

>  <SCORE.INTRA.DIHEDRAL.0>
18.358

>  <SCORE.INTRA.POLAR>
0

>  <SCORE.INTRA.POLAR.0>
0

>  <SCORE.INTRA.REPUL>
0

>  <SCORE.INTRA.REPUL.0>
0

>  <SCORE.INTRA.VDW>
-1.08558

>  <SCORE.INTRA.VDW.0>
-1.94569

>  <SCORE.INTRA.norm>
0.0721265

>  <SCORE.RESTR>
0.115604

>  <SCORE.RESTR.CAVITY>
0.0231208

>  <SCORE.RESTR.norm>
0.00340012

>  <SCORE.SYSTEM>
-0.537721

>  <SCORE.SYSTEM.CONST>
0

>  <SCORE.SYSTEM.DIHEDRAL>
0.805315

>  <SCORE.SYSTEM.VDW>
-0.940379

>  <SCORE.SYSTEM.norm>
-0.0158153

>  <SCORE.heavy>
34

>  <SCORE.norm>
-0.77893

$$$$
RAL.pdb
  rDOCK(R)          3D
libRbt.so/2013.1/901 2013/11/27
 36 40  0  0  0  0  0  0  0  0999 V2000
   32.9779   -1.5253   27.8108 C   0  0  0  0  0  0
   34.1840   -1.2774   28.4140 C   0  0  0  0  0  0
   34.2882   -0.5892   29.5906 C   0  0  0  0  0  0
   35.5510   -0.4342   30.1057 O   0  0  0  0  0  0
   33.1258   -0.1313   30.2213 C   0  0  0  0  0  0
   31.9178   -0.4115   29.6316 C   0  0  0  0  0  0
   30.3941    0.0282   30.0964 S   0  0  0  0  0  0
   29.5403   -0.7151   28.8441 C   0  0  0  0  0  0
   28.0654   -0.5950   28.6647 C   0  0  0  0  0  0
   27.6531    0.4412   27.8496 C   0  0  0  0  0  0
   26.3015    0.5588   27.5690 C   0  0  0  0  0  0
   25.3737   -0.3057   28.1156 C   0  0  0  0  0  0
   24.0348   -0.1109   27.7717 O   0  0  0  0  0  0
   25.7917   -1.3668   28.8916 C   0  0  0  0  0  0
   27.1510   -1.4866   29.1539 C   0  0  0  0  0  0
   31.8400   -1.1161   28.3966 C   0  0  0  0  0  0
   30.4688   -1.2633   27.9342 C   0  0  0  0  0  0
   30.1520   -1.8831   26.7404 C   0  0  0  0  0  0
   29.1186   -2.5596   26.6641 O   0  0  0  0  0  0
   31.0000   -1.7894   25.5470 C   0  0  0  0  0  0
   31.5911   -2.9170   25.0135 C   0  0  0  0  0  0
   32.4067   -2.8612   23.9000 C   0  0  0  0  0  0
   32.6612   -1.6206   23.3180 C   0  0  0  0  0  0
   32.0678   -0.4848   23.8393 C   0  0  0  0  0  0
   31.2325   -0.5732   24.9403 C   0  0  0  0  0  0
   33.4331   -1.3207   22.2347 O   0  0  0  0  0  0
   34.1050   -2.4062   21.6142 C   0  0  0  0  0  0
   33.6411   -2.5643   20.1908 C   0  0  0  0  0  0
   33.9752   -1.7678   19.0257 N   0  0  0  0  0  0
   35.3648   -2.0687   18.6260 C   0  0  0  0  0  0
   35.7916   -1.3961   17.3057 C   0  0  0  0  0  0
   35.7101    0.1217   17.5355 C   0  0  0  0  0  0
   34.1907    0.3835   17.7711 C   0  0  0  0  0  0
   33.8182   -0.3020   19.0973 C   0  0  0  0  0  0
   36.2992   -0.5392   29.5515 H   0  0  0  0  0  0
   23.7229    0.7498   27.5718 H   0  0  0  0  0  0
  1  2  2  0  0  0
  1 16  1  0  0  0
  2  3  1  0  0  0
  3  4  1  0  0  0
  3  5  2  0  0  0
  4 35  1  0  0  0
  5  6  1  0  0  0
  6  7  1  0  0  0
  6 16  2  0  0  0
  7  8  1  0  0  0
  8  9  1  0  0  0
  8 17  2  0  0  0
  9 10  2  0  0  0
  9 15  1  0  0  0
 10 11  1  0  0  0
 11 12  2  0  0  0
 12 13  1  0  0  0
 12 14  1  0  0  0
 13 36  1  0  0  0
 14 15  2  0  0  0
 16 17  1  0  0  0
 17 18  1  0  0  0
 18 19  2  0  0  0
 18 20  1  0  0  0
 20 21  2  0  0  0
 20 25  1  0  0  0
 21 22  1  0  0  0
 22 23  2  0  0  0
 23 24  1  0  0  0
 23 26  1  0  0  0
 24 25  2  0  0  0
 26 27  1  0  0  0
 27 28  1  0  0  0
 28 29  1  0  0  0
 29 30  1  0  0  0
 29 34  1  0  0  0
 30 31  1  0  0  0
 31 32  1  0  0  0
 32 33  1  0  0  0
 33 34  1  0  0  0
M  END
>  <CHROM.0>
41.84551105,-60.56480275,109.89961121

>  <CHROM.1>
19.37011247,91.66628520,-30.08867343,-34.95321053,116.79826412,-1.54243100
118.33916222,75.74283099,72.90025123,31.44054925,-1.02374803,25.44358151
-2.11232984,0.03972178,-1.61502858

>  <FORMUL>
      RAL    C28 H27 N1 O4 S1

>  <HET>
 RAL  A 600      34

>  <HETNAM>
     RAL RALOXIFENE

>  <Name>
RAL.pdb

>  <RI>
0

>  <Rbt.Current_Directory>
/home/malgorzata/Desktop/rDOCK_IFD/Wyniki/6a_estrogen_receptor

>  <Rbt.Executable>
rbdock ($Id: //depot/dev/client3/rdock/2013.1/src/exe/rbdock.cxx#4 $)

>  <Rbt.Library>
libRbt.so (2013.1, Build901 2013/11/27)

>  <Rbt.Parameter_File>
/home/malgorzata/Desktop/rDock_2013.1_src/data/scripts/soft_docking.prm

>  <Rbt.Receptor>
cavity.prm

>  <SCORE>
-34.5715

>  <SCORE.INTER>
-36.7235

>  <SCORE.INTER.CONST>
1

>  <SCORE.INTER.POLAR>
-2.58547

>  <SCORE.INTER.REPUL>
0.068279

>  <SCORE.INTER.ROT>
7

>  <SCORE.INTER.VDW>
-40.6743

>  <SCORE.INTER.norm>
-1.0801

>  <SCORE.INTRA>
2.58086

>  <SCORE.INTRA.DIHEDRAL>
17.8314

>  <SCORE.INTRA.DIHEDRAL.0>
18.358

>  <SCORE.INTRA.POLAR>
0

>  <SCORE.INTRA.POLAR.0>
0

>  <SCORE.INTRA.REPUL>
0

>  <SCORE.INTRA.REPUL.0>
0

>  <SCORE.INTRA.VDW>
-0.985422

>  <SCORE.INTRA.VDW.0>
-1.94569

>  <SCORE.INTRA.norm>
0.0759076

>  <SCORE.RESTR>
0

>  <SCORE.RESTR.CAVITY>
0

>  <SCORE.RESTR.norm>
0

>  <SCORE.SYSTEM>
-0.428811

>  <SCORE.SYSTEM.CONST>
0

>  <SCORE.SYSTEM.DIHEDRAL>
0.803042

>  <SCORE.SYSTEM.VDW>
-0.830332

>  <SCORE.SYSTEM.norm>
-0.0126121

>  <SCORE.heavy>
34

>  <SCORE.norm>
-1.01681

$$$$
RAL.pdb
  rDOCK(R)          3D
libRbt.so/2013.1/901 2013/11/27
 36 40  0  0  0  0  0  0  0  0999 V2000
   33.1286   -0.3141   26.7646 C   0  0  0  0  0  0
   34.2458   -0.0233   27.5043 C   0  0  0  0  0  0
   34.1850    0.2866   28.8344 C   0  0  0  0  0  0
   35.3786    0.5287   29.4673 O   0  0  0  0  0  0
   32.9433    0.2928   29.4800 C   0  0  0  0  0  0
   31.8309   -0.0327   28.7437 C   0  0  0  0  0  0
   30.2423   -0.0660   29.1981 S   0  0  0  0  0  0
   29.5836   -0.5540   27.7224 C   0  0  0  0  0  0
   28.1196   -0.6824   27.4733 C   0  0  0  0  0  0
   27.5279   -1.8114   28.0055 C   0  0  0  0  0  0
   26.1546   -1.9516   27.8870 C   0  0  0  0  0  0
   25.3890   -1.0149   27.2210 C   0  0  0  0  0  0
   24.0127   -1.2400   27.1565 O   0  0  0  0  0  0
   25.9749    0.1336   26.7308 C   0  0  0  0  0  0
   27.3504    0.2736   26.8691 C   0  0  0  0  0  0
   31.9218   -0.3352   27.3551 C   0  0  0  0  0  0
   30.6198   -0.6073   26.7664 C   0  0  0  0  0  0
   30.4586   -0.8906   25.4235 C   0  0  0  0  0  0
   29.6025   -0.2780   24.7732 O   0  0  0  0  0  0
   31.2535   -1.9066   24.7249 C   0  0  0  0  0  0
   31.6419   -3.0630   25.3709 C   0  0  0  0  0  0
   32.4028   -4.0324   24.7467 C   0  0  0  0  0  0
   32.8134   -3.8177   23.4322 C   0  0  0  0  0  0
   32.4233   -2.6661   22.7721 C   0  0  0  0  0  0
   31.6374   -1.7232   23.4133 C   0  0  0  0  0  0
   33.5694   -4.6162   22.6258 O   0  0  0  0  0  0
   34.9156   -4.8268   23.0235 C   0  0  0  0  0  0
   35.5710   -5.8483   22.1326 C   0  0  0  0  0  0
   36.8614   -5.7935   21.4729 N   0  0  0  0  0  0
   36.6474   -5.7339   20.0129 C   0  0  0  0  0  0
   37.9419   -5.5197   19.2028 C   0  0  0  0  0  0
   38.8409   -6.7366   19.4748 C   0  0  0  0  0  0
   39.1692   -6.6271   20.9956 C   0  0  0  0  0  0
   37.8505   -6.8518   21.7560 C   0  0  0  0  0  0
   36.1415    0.7376   28.9649 H   0  0  0  0  0  0
   23.6648   -1.8377   26.5242 H   0  0  0  0  0  0
  1  2  2  0  0  0
  1 16  1  0  0  0
  2  3  1  0  0  0
  3  4  1  0  0  0
  3  5  2  0  0  0
  4 35  1  0  0  0
  5  6  1  0  0  0
  6  7  1  0  0  0
  6 16  2  0  0  0
  7  8  1  0  0  0
  8  9  1  0  0  0
  8 17  2  0  0  0
  9 10  2  0  0  0
  9 15  1  0  0  0
 10 11  1  0  0  0
 11 12  2  0  0  0
 12 13  1  0  0  0
 12 14  1  0  0  0
 13 36  1  0  0  0
 14 15  2  0  0  0
 16 17  1  0  0  0
 17 18  1  0  0  0
 18 19  2  0  0  0
 18 20  1  0  0  0
 20 21  2  0  0  0
 20 25  1  0  0  0
 21 22  1  0  0  0
 22 23  2  0  0  0
 23 24  1  0  0  0
 23 26  1  0  0  0
 24 25  2  0  0  0
 26 27  1  0  0  0
 27 28  1  0  0  0
 28 29  1  0  0  0
 29 30  1  0  0  0
 29 34  1  0  0  0
 30 31  1  0  0  0
 31 32  1  0  0  0
 32 33  1  0  0  0
 33 34  1  0  0  0
M  END
>  <CHROM.0>
24.26337895,-60.56480275,-87.14438607

>  <CHROM.1>
18.74389446,-76.95699052,-80.18826896,50.11635257,35.06939085,-65.32471573
173.40116556,132.49641784,-113.36340212,32.12008732,-2.26728522,25.33490267
-2.37209127,0.04008556,-2.20273698

>  <FORMUL>
      RAL    C28 H27 N1 O4 S1

>  <HET>
 RAL  A 600      34

>  <HETNAM>
     RAL RALOXIFENE

>  <Name>
RAL.pdb

>  <RI>
0

>  <Rbt.Current_Directory>
/home/malgorzata/Desktop/rDOCK_IFD/Wyniki/6a_estrogen_receptor

>  <Rbt.Executable>
rbdock ($Id: //depot/dev/client3/rdock/2013.1/src/exe/rbdock.cxx#4 $)

>  <Rbt.Library>
libRbt.so (2013.1, Build901 2013/11/27)

>  <Rbt.Parameter_File>
/home/malgorzata/Desktop/rDock_2013.1_src/data/scripts/soft_docking.prm

>  <Rbt.Receptor>
cavity.prm

>  <SCORE>
-28.9834

>  <SCORE.INTER>
-30.982

>  <SCORE.INTER.CONST>
1

>  <SCORE.INTER.POLAR>
-1.58008

>  <SCORE.INTER.REPUL>
0.284327

>  <SCORE.INTER.ROT>
7

>  <SCORE.INTER.VDW>
-39.4313

>  <SCORE.INTER.norm>
-0.911235

>  <SCORE.INTRA>
2.38196

>  <SCORE.INTRA.DIHEDRAL>
20.9667

>  <SCORE.INTRA.DIHEDRAL.0>
18.358

>  <SCORE.INTRA.POLAR>
0

>  <SCORE.INTRA.POLAR.0>
0

>  <SCORE.INTRA.REPUL>
0

>  <SCORE.INTRA.REPUL.0>
0

>  <SCORE.INTRA.VDW>
-1.81139

>  <SCORE.INTRA.VDW.0>
-1.94569

>  <SCORE.INTRA.norm>
0.0700577

>  <SCORE.RESTR>
0

>  <SCORE.RESTR.CAVITY>
0

>  <SCORE.RESTR.norm>
0

>  <SCORE.SYSTEM>
-0.383353

>  <SCORE.SYSTEM.CONST>
0

>  <SCORE.SYSTEM.DIHEDRAL>
0.806731

>  <SCORE.SYSTEM.VDW>
-0.786718

>  <SCORE.SYSTEM.norm>
-0.0112751

>  <SCORE.heavy>
34

>  <SCORE.norm>
-0.852452

$$$$
RAL.pdb
  rDOCK(R)          3D
libRbt.so/2013.1/901 2013/11/27
 36 40  0  0  0  0  0  0  0  0999 V2000
   32.9916   -1.0563   28.8612 C   0  0  0  0  0  0
   34.0805   -0.3868   29.3573 C   0  0  0  0  0  0
   34.0273    0.9280   29.7276 C   0  0  0  0  0  0
   35.1792    1.4732   30.2374 O   0  0  0  0  0  0
   32.8170    1.6221   29.6174 C   0  0  0  0  0  0
   31.7206    0.9386   29.1525 C   0  0  0  0  0  0
   30.1866    1.4825   28.8656 S   0  0  0  0  0  0
   29.5163    0.0296   28.3278 C   0  0  0  0  0  0
   28.1206   -0.0986   27.8204 C   0  0  0  0  0  0
   27.2644   -0.8231   28.6267 C   0  0  0  0  0  0
   25.9312   -0.9089   28.2598 C   0  0  0  0  0  0
   25.4637   -0.3245   27.0992 C   0  0  0  0  0  0
   24.1037   -0.4612   26.8149 O   0  0  0  0  0  0
   26.3098    0.4368   26.3200 C   0  0  0  0  0  0
   27.6416    0.5312   26.7048 C   0  0  0  0  0  0
   31.8089   -0.4269   28.7581 C   0  0  0  0  0  0
   30.5419   -0.9367   28.2576 C   0  0  0  0  0  0
   30.3973   -2.2272   27.7851 C   0  0  0  0  0  0
   29.9734   -3.1071   28.5451 O   0  0  0  0  0  0
   30.7404   -2.6138   26.4122 C   0  0  0  0  0  0
   29.8576   -2.3863   25.3757 C   0  0  0  0  0  0
   30.1436   -2.7515   24.0744 C   0  0  0  0  0  0
   31.3507   -3.3961   23.8099 C   0  0  0  0  0  0
   32.2466   -3.6221   24.8396 C   0  0  0  0  0  0
   31.9459   -3.2211   26.1305 C   0  0  0  0  0  0
   31.8390   -3.8542   22.6220 O   0  0  0  0  0  0
   31.4240   -5.1519   22.2234 C   0  0  0  0  0  0
   30.5567   -5.0701   20.9956 C   0  0  0  0  0  0
   30.8036   -4.3774   19.7456 N   0  0  0  0  0  0
   30.9448   -2.9334   20.0213 C   0  0  0  0  0  0
   31.3612   -2.1030   18.7906 C   0  0  0  0  0  0
   30.2362   -2.2533   17.7539 C   0  0  0  0  0  0
   30.2709   -3.7673   17.3807 C   0  0  0  0  0  0
   29.8451   -4.5482   18.6362 C   0  0  0  0  0  0
   36.0135    1.1786   29.9289 H   0  0  0  0  0  0
   23.7290   -0.0048   26.0874 H   0  0  0  0  0  0
  1  2  2  0  0  0
  1 16  1  0  0  0
  2  3  1  0  0  0
  3  4  1  0  0  0
  3  5  2  0  0  0
  4 35  1  0  0  0
  5  6  1  0  0  0
  6  7  1  0  0  0
  6 16  2  0  0  0
  7  8  1  0  0  0
  8  9  1  0  0  0
  8 17  2  0  0  0
  9 10  2  0  0  0
  9 15  1  0  0  0
 10 11  1  0  0  0
 11 12  2  0  0  0
 12 13  1  0  0  0
 12 14  1  0  0  0
 13 36  1  0  0  0
 14 15  2  0  0  0
 16 17  1  0  0  0
 17 18  1  0  0  0
 18 19  2  0  0  0
 18 20  1  0  0  0
 20 21  2  0  0  0
 20 25  1  0  0  0
 21 22  1  0  0  0
 22 23  2  0  0  0
 23 24  1  0  0  0
 23 26  1  0  0  0
 24 25  2  0  0  0
 26 27  1  0  0  0
 27 28  1  0  0  0
 28 29  1  0  0  0
 29 30  1  0  0  0
 29 34  1  0  0  0
 30 31  1  0  0  0
 31 32  1  0  0  0
 32 33  1  0  0  0
 33 34  1  0  0  0
M  END
>  <CHROM.0>
30.79345936,-60.56480275,-152.83739747

>  <CHROM.1>
32.64135131,-111.43910420,173.52118052,-83.76755913,-81.54325263,-85.11268356
113.20657867,50.39893795,-60.87089154,30.33759267,-1.54412802,25.56123227
-1.55430012,0.08901865,-1.98577506

>  <FORMUL>
      RAL    C28 H27 N1 O4 S1

>  <HET>
 RAL  A 600      34

>  <HETNAM>
     RAL RALOXIFENE

>  <Name>
RAL.pdb

>  <RI>
0

>  <Rbt.Current_Directory>
/home/malgorzata/Desktop/rDOCK_IFD/Wyniki/6a_estrogen_receptor

>  <Rbt.Executable>
rbdock ($Id: //depot/dev/client3/rdock/2013.1/src/exe/rbdock.cxx#4 $)

>  <Rbt.Library>
libRbt.so (2013.1, Build901 2013/11/27)

>  <Rbt.Parameter_File>
/home/malgorzata/Desktop/rDock_2013.1_src/data/scripts/soft_docking.prm

>  <Rbt.Receptor>
cavity.prm

>  <SCORE>
-30.0204

>  <SCORE.INTER>
-34.0085

>  <SCORE.INTER.CONST>
1

>  <SCORE.INTER.POLAR>
-1.56183

>  <SCORE.INTER.REPUL>
0.240572

>  <SCORE.INTER.ROT>
7

>  <SCORE.INTER.VDW>
-42.3011

>  <SCORE.INTER.norm>
-1.00025

>  <SCORE.INTRA>
3.71772

>  <SCORE.INTRA.DIHEDRAL>
30.1521

>  <SCORE.INTRA.DIHEDRAL.0>
18.358

>  <SCORE.INTRA.POLAR>
0

>  <SCORE.INTRA.POLAR.0>
0

>  <SCORE.INTRA.REPUL>
0

>  <SCORE.INTRA.REPUL.0>
0

>  <SCORE.INTRA.VDW>
-2.3127

>  <SCORE.INTRA.VDW.0>
-1.94569

>  <SCORE.INTRA.norm>
0.109345

>  <SCORE.RESTR>
0.570168

>  <SCORE.RESTR.CAVITY>
0.114034

>  <SCORE.RESTR.norm>
0.0167696

>  <SCORE.SYSTEM>
-0.29979

>  <SCORE.SYSTEM.CONST>
0

>  <SCORE.SYSTEM.DIHEDRAL>
0.801805

>  <SCORE.SYSTEM.VDW>
-0.700692

>  <SCORE.SYSTEM.norm>
-0.00881734

>  <SCORE.heavy>
34

>  <SCORE.norm>
-0.882952

$$$$
RAL.pdb
  rDOCK(R)          3D
libRbt.so/2013.1/901 2013/11/27
 36 40  0  0  0  0  0  0  0  0999 V2000
   32.7254   -1.1259   28.5731 C   0  0  0  0  0  0
   33.9225   -0.6475   29.0398 C   0  0  0  0  0  0
   34.0424    0.5798   29.6299 C   0  0  0  0  0  0
   35.2907    0.9288   30.0814 O   0  0  0  0  0  0
   32.9041    1.3792   29.7850 C   0  0  0  0  0  0
   31.7013    0.8820   29.3474 C   0  0  0  0  0  0
   30.2091    1.5923   29.3434 S   0  0  0  0  0  0
   29.3419    0.3188   28.6535 C   0  0  0  0  0  0
   27.8951    0.3982   28.3040 C   0  0  0  0  0  0
   27.1759   -0.7642   28.5029 C   0  0  0  0  0  0
   25.8085   -0.7371   28.2814 C   0  0  0  0  0  0
   25.1731    0.4044   27.8338 C   0  0  0  0  0  0
   23.7918    0.3366   27.6429 O   0  0  0  0  0  0
   25.8849    1.5759   27.6801 C   0  0  0  0  0  0
   27.2530    1.5434   27.9208 C   0  0  0  0  0  0
   31.6086   -0.3936   28.7209 C   0  0  0  0  0  0
   30.2510   -0.7001   28.2983 C   0  0  0  0  0  0
   29.9272   -1.8691   27.6363 C   0  0  0  0  0  0
   29.0217   -2.5862   28.0800 O   0  0  0  0  0  0
   30.6241   -2.3152   26.4249 C   0  0  0  0  0  0
   31.4409   -3.4276   26.4523 C   0  0  0  0  0  0
   32.1227   -3.8654   25.3335 C   0  0  0  0  0  0
   32.0015   -3.1403   24.1493 C   0  0  0  0  0  0
   31.1793   -2.0284   24.1080 C   0  0  0  0  0  0
   30.4860   -1.6275   25.2377 C   0  0  0  0  0  0
   32.5808   -3.3705   22.9365 O   0  0  0  0  0  0
   33.9925   -3.5187   22.9255 C   0  0  0  0  0  0
   34.4741   -3.8418   21.5362 C   0  0  0  0  0  0
   35.4982   -4.7798   21.1179 N   0  0  0  0  0  0
   36.7876   -4.3730   21.7122 C   0  0  0  0  0  0
   37.9308   -5.3779   21.4654 C   0  0  0  0  0  0
   38.1400   -5.4455   19.9439 C   0  0  0  0  0  0
   36.8061   -6.0518   19.4092 C   0  0  0  0  0  0
   35.7031   -5.0124   19.6749 C   0  0  0  0  0  0
   35.4792    1.8215   30.2948 H   0  0  0  0  0  0
   23.3144    1.1049   27.3983 H   0  0  0  0  0  0
  1  2  2  0  0  0
  1 16  1  0  0  0
  2  3  1  0  0  0
  3  4  1  0  0  0
  3  5  2  0  0  0
  4 35  1  0  0  0
  5  6  1  0  0  0
  6  7  1  0  0  0
  6 16  2  0  0  0
  7  8  1  0  0  0
  8  9  1  0  0  0
  8 17  2  0  0  0
  9 10  2  0  0  0
  9 15  1  0  0  0
 10 11  1  0  0  0
 11 12  2  0  0  0
 12 13  1  0  0  0
 12 14  1  0  0  0
 13 36  1  0  0  0
 14 15  2  0  0  0
 16 17  1  0  0  0
 17 18  1  0  0  0
 18 19  2  0  0  0
 18 20  1  0  0  0
 20 21  2  0  0  0
 20 25  1  0  0  0
 21 22  1  0  0  0
 22 23  2  0  0  0
 23 24  1  0  0  0
 23 26  1  0  0  0
 24 25  2  0  0  0
 26 27  1  0  0  0
 27 28  1  0  0  0
 28 29  1  0  0  0
 29 30  1  0  0  0
 29 34  1  0  0  0
 30 31  1  0  0  0
 31 32  1  0  0  0
 32 33  1  0  0  0
 33 34  1  0  0  0
M  END
>  <CHROM.0>
-57.27811474,-60.56480275,-33.88703260

>  <CHROM.1>
164.78055988,-143.73538547,175.69823361,-52.94758550,110.85801307,-53.15997561
176.86693573,-139.42865986,-61.14406169,31.58555607,-1.59697759,26.09954259
-2.28958133,0.05801845,-2.13570166

>  <FORMUL>
      RAL    C28 H27 N1 O4 S1

>  <HET>
 RAL  A 600      34

>  <HETNAM>
     RAL RALOXIFENE

>  <Name>
RAL.pdb

>  <RI>
0

>  <Rbt.Current_Directory>
/home/malgorzata/Desktop/rDOCK_IFD/Wyniki/6a_estrogen_receptor

>  <Rbt.Executable>
rbdock ($Id: //depot/dev/client3/rdock/2013.1/src/exe/rbdock.cxx#4 $)

>  <Rbt.Library>
libRbt.so (2013.1, Build901 2013/11/27)

>  <Rbt.Parameter_File>
/home/malgorzata/Desktop/rDock_2013.1_src/data/scripts/soft_docking.prm

>  <Rbt.Receptor>
cavity.prm

>  <SCORE>
-33.3425

>  <SCORE.INTER>
-34.7582

>  <SCORE.INTER.CONST>
1

>  <SCORE.INTER.POLAR>
-1.97491

>  <SCORE.INTER.REPUL>
0

>  <SCORE.INTER.ROT>
7

>  <SCORE.INTER.VDW>
-40.4435

>  <SCORE.INTER.norm>
-1.0223

>  <SCORE.INTRA>
2.15553

>  <SCORE.INTRA.DIHEDRAL>
12.7149

>  <SCORE.INTRA.DIHEDRAL.0>
18.358

>  <SCORE.INTRA.POLAR>
0

>  <SCORE.INTRA.POLAR.0>
0

>  <SCORE.INTRA.REPUL>
0

>  <SCORE.INTRA.REPUL.0>
0

>  <SCORE.INTRA.VDW>
-0.387436

>  <SCORE.INTRA.VDW.0>
-1.94569

>  <SCORE.INTRA.norm>
0.0633981

>  <SCORE.RESTR>
0.0317923

>  <SCORE.RESTR.CAVITY>
0.00635846

>  <SCORE.RESTR.norm>
0.000935067

>  <SCORE.SYSTEM>
-0.771631

>  <SCORE.SYSTEM.CONST>
0

>  <SCORE.SYSTEM.DIHEDRAL>
0.801929

>  <SCORE.SYSTEM.POLAR>
-0.000411235

>  <SCORE.SYSTEM.VDW>
-1.1712

>  <SCORE.SYSTEM.norm>
-0.022695

>  <SCORE.heavy>
34

>  <SCORE.norm>
-0.980662

$$$$
RAL.pdb
  rDOCK(R)          3D
libRbt.so/2013.1/901 2013/11/27
 36 40  0  0  0  0  0  0  0  0999 V2000
   32.8409    0.0956   27.7783 C   0  0  0  0  0  0
   33.9450    0.5579   28.4468 C   0  0  0  0  0  0
   33.9887    0.6595   29.8093 C   0  0  0  0  0  0
   35.1639    1.1089   30.3578 O   0  0  0  0  0  0
   32.8772    0.2627   30.5616 C   0  0  0  0  0  0
   31.7863   -0.2320   29.8903 C   0  0  0  0  0  0
   30.3249   -0.7287   30.4809 S   0  0  0  0  0  0
   29.6117   -1.1639   29.0142 C   0  0  0  0  0  0
   28.1999   -1.6251   28.8867 C   0  0  0  0  0  0
   27.5824   -1.3100   27.6919 C   0  0  0  0  0  0
   26.2991   -1.7829   27.4706 C   0  0  0  0  0  0
   25.6263   -2.5173   28.4272 C   0  0  0  0  0  0
   24.3384   -2.9541   28.1120 O   0  0  0  0  0  0
   26.2612   -2.8698   29.6000 C   0  0  0  0  0  0
   27.5544   -2.4051   29.8062 C   0  0  0  0  0  0
   31.7621   -0.3109   28.4686 C   0  0  0  0  0  0
   30.4956   -0.8226   27.9688 C   0  0  0  0  0  0
   30.2302   -0.9534   26.6190 C   0  0  0  0  0  0
   29.4113   -0.1943   26.0858 O   0  0  0  0  0  0
   30.8697   -1.9717   25.7786 C   0  0  0  0  0  0
   32.1339   -2.4384   26.0776 C   0  0  0  0  0  0
   32.7700   -3.3855   25.2988 C   0  0  0  0  0  0
   32.1222   -3.8603   24.1597 C   0  0  0  0  0  0
   30.8516   -3.4057   23.8546 C   0  0  0  0  0  0
   30.2262   -2.4757   24.6680 C   0  0  0  0  0  0
   32.5515   -4.7753   23.2443 O   0  0  0  0  0  0
   33.6936   -4.4202   22.4798 C   0  0  0  0  0  0
   33.5206   -3.0474   21.8868 C   0  0  0  0  0  0
   32.9453   -2.6678   20.6106 N   0  0  0  0  0  0
   31.9615   -3.6932   20.2082 C   0  0  0  0  0  0
   31.1676   -3.3285   18.9376 C   0  0  0  0  0  0
   32.1893   -3.2147   17.7946 C   0  0  0  0  0  0
   33.0768   -1.9997   18.2055 C   0  0  0  0  0  0
   33.8479   -2.4154   19.4704 C   0  0  0  0  0  0
   35.9840    0.8470   29.9879 H   0  0  0  0  0  0
   24.1519   -3.2829   27.2547 H   0  0  0  0  0  0
  1  2  2  0  0  0
  1 16  1  0  0  0
  2  3  1  0  0  0
  3  4  1  0  0  0
  3  5  2  0  0  0
  4 35  1  0  0  0
  5  6  1  0  0  0
  6  7  1  0  0  0
  6 16  2  0  0  0
  7  8  1  0  0  0
  8  9  1  0  0  0
  8 17  2  0  0  0
  9 10  2  0  0  0
  9 15  1  0  0  0
 10 11  1  0  0  0
 11 12  2  0  0  0
 12 13  1  0  0  0
 12 14  1  0  0  0
 13 36  1  0  0  0
 14 15  2  0  0  0
 16 17  1  0  0  0
 17 18  1  0  0  0
 18 19  2  0  0  0
 18 20  1  0  0  0
 20 21  2  0  0  0
 20 25  1  0  0  0
 21 22  1  0  0  0
 22 23  2  0  0  0
 23 24  1  0  0  0
 23 26  1  0  0  0
 24 25  2  0  0  0
 26 27  1  0  0  0
 27 28  1  0  0  0
 28 29  1  0  0  0
 29 30  1  0  0  0
 29 34  1  0  0  0
 30 31  1  0  0  0
 31 32  1  0  0  0
 32 33  1  0  0  0
 33 34  1  0  0  0
M  END
>  <CHROM.0>
136.48288708,-60.56480275,-99.47316762

>  <CHROM.1>
-37.76753135,148.98229804,41.06378004,70.97302426,-29.16305803,-64.29977227
-49.99540597,-90.06624844,27.33168505,30.94607237,-1.86997338,25.91115575
-1.89620206,-0.26662640,-1.89788314

>  <FORMUL>
      RAL    C28 H27 N1 O4 S1

>  <HET>
 RAL  A 600      34

>  <HETNAM>
     RAL RALOXIFENE

>  <Name>
RAL.pdb

>  <RI>
0

>  <Rbt.Current_Directory>
/home/malgorzata/Desktop/rDOCK_IFD/Wyniki/6a_estrogen_receptor

>  <Rbt.Executable>
rbdock ($Id: //depot/dev/client3/rdock/2013.1/src/exe/rbdock.cxx#4 $)

>  <Rbt.Library>
libRbt.so (2013.1, Build901 2013/11/27)

>  <Rbt.Parameter_File>
/home/malgorzata/Desktop/rDock_2013.1_src/data/scripts/soft_docking.prm

>  <Rbt.Receptor>
cavity.prm

>  <SCORE>
-28.4728

>  <SCORE.INTER>
-33.16

>  <SCORE.INTER.CONST>
1

>  <SCORE.INTER.POLAR>
-2.33416

>  <SCORE.INTER.REPUL>
0.291403

>  <SCORE.INTER.ROT>
7

>  <SCORE.INTER.VDW>
-39.0808

>  <SCORE.INTER.norm>
-0.975293

>  <SCORE.INTRA>
4.0051

>  <SCORE.INTRA.DIHEDRAL>
10.5402

>  <SCORE.INTRA.DIHEDRAL.0>
18.358

>  <SCORE.INTRA.POLAR>
0

>  <SCORE.INTRA.POLAR.0>
0

>  <SCORE.INTRA.REPUL>
0

>  <SCORE.INTRA.REPUL.0>
0

>  <SCORE.INTRA.VDW>
1.89705

>  <SCORE.INTRA.VDW.0>
-1.94569

>  <SCORE.INTRA.norm>
0.117797

>  <SCORE.RESTR>
1.22825

>  <SCORE.RESTR.CAVITY>
0.245649

>  <SCORE.RESTR.norm>
0.0361249

>  <SCORE.SYSTEM>
-0.546171

>  <SCORE.SYSTEM.CONST>
0

>  <SCORE.SYSTEM.DIHEDRAL>
0.806486

>  <SCORE.SYSTEM.VDW>
-0.949414

>  <SCORE.SYSTEM.norm>
-0.0160638

>  <SCORE.heavy>
34

>  <SCORE.norm>
-0.837434

$$$$
RAL.pdb
  rDOCK(R)          3D
libRbt.so/2013.1/901 2013/11/27
 36 40  0  0  0  0  0  0  0  0999 V2000
   28.5624   -2.2350   28.2234 C   0  0  0  0  0  0
   27.2590   -2.1820   28.6456 C   0  0  0  0  0  0
   26.7992   -1.2076   29.4869 C   0  0  0  0  0  0
   25.4660   -1.2496   29.8105 O   0  0  0  0  0  0
   27.6784   -0.2112   29.9260 C   0  0  0  0  0  0
   28.9743   -0.2481   29.4735 C   0  0  0  0  0  0
   30.2456    0.7410   29.8432 S   0  0  0  0  0  0
   31.4131   -0.0015   28.8762 C   0  0  0  0  0  0
   32.8463    0.4073   28.8506 C   0  0  0  0  0  0
   33.6578   -0.3401   28.0194 C   0  0  0  0  0  0
   34.9831    0.0390   27.8801 C   0  0  0  0  0  0
   35.5041    1.1097   28.5795 C   0  0  0  0  0  0
   36.8495    1.4185   28.3711 O   0  0  0  0  0  0
   34.6817    1.8823   29.3729 C   0  0  0  0  0  0
   33.3499    1.5045   29.4934 C   0  0  0  0  0  0
   29.4304   -1.2851   28.6104 C   0  0  0  0  0  0
   30.8435   -1.1527   28.2925 C   0  0  0  0  0  0
   31.5130   -2.0648   27.4991 C   0  0  0  0  0  0
   32.3560   -2.8111   28.0125 O   0  0  0  0  0  0
   31.2808   -2.1832   26.0554 C   0  0  0  0  0  0
   31.3182   -3.4159   25.4354 C   0  0  0  0  0  0
   31.1186   -3.5603   24.0761 C   0  0  0  0  0  0
   30.9020   -2.4188   23.3063 C   0  0  0  0  0  0
   30.8543   -1.1788   23.9181 C   0  0  0  0  0  0
   31.0308   -1.0658   25.2870 C   0  0  0  0  0  0
   30.6945   -2.3139   21.9627 O   0  0  0  0  0  0
   30.4916   -3.5278   21.2553 C   0  0  0  0  0  0
   30.4640   -3.2710   19.7722 C   0  0  0  0  0  0
   31.4976   -3.5096   18.7830 N   0  0  0  0  0  0
   31.4405   -2.4390   17.7673 C   0  0  0  0  0  0
   32.5888   -2.4948   16.7397 C   0  0  0  0  0  0
   32.4488   -3.8304   15.9915 C   0  0  0  0  0  0
   32.7005   -4.9050   17.0935 C   0  0  0  0  0  0
   31.5293   -4.8108   18.0870 C   0  0  0  0  0  0
   24.9268   -1.9440   29.4863 H   0  0  0  0  0  0
   37.5063    0.7632   28.5023 H   0  0  0  0  0  0
  1  2  2  0  0  0
  1 16  1  0  0  0
  2  3  1  0  0  0
  3  4  1  0  0  0
  3  5  2  0  0  0
  4 35  1  0  0  0
  5  6  1  0  0  0
  6  7  1  0  0  0
  6 16  2  0  0  0
  7  8  1  0  0  0
  8  9  1  0  0  0
  8 17  2  0  0  0
  9 10  2  0  0  0
  9 15  1  0  0  0
 10 11  1  0  0  0
 11 12  2  0  0  0
 12 13  1  0  0  0
 12 14  1  0  0  0
 13 36  1  0  0  0
 14 15  2  0  0  0
 16 17  1  0  0  0
 17 18  1  0  0  0
 18 19  2  0  0  0
 18 20  1  0  0  0
 20 21  2  0  0  0
 20 25  1  0  0  0
 21 22  1  0  0  0
 22 23  2  0  0  0
 23 24  1  0  0  0
 23 26  1  0  0  0
 24 25  2  0  0  0
 26 27  1  0  0  0
 27 28  1  0  0  0
 28 29  1  0  0  0
 29 30  1  0  0  0
 29 34  1  0  0  0
 30 31  1  0  0  0
 31 32  1  0  0  0
 32 33  1  0  0  0
 33 34  1  0  0  0
M  END
>  <CHROM.0>
-84.96283940,-60.56480275,-112.79331536

>  <CHROM.1>
2.48418054,178.50254071,-55.42652209,70.32554569,-143.90432207,9.30859908
-172.33787585,102.65002776,-144.58012557,31.23238788,-1.49757783,25.43732222
1.65033502,0.30173602,1.23922792

>  <FORMUL>
      RAL    C28 H27 N1 O4 S1

>  <HET>
 RAL  A 600      34

>  <HETNAM>
     RAL RALOXIFENE

>  <Name>
RAL.pdb

>  <RI>
0

>  <Rbt.Current_Directory>
/home/malgorzata/Desktop/rDOCK_IFD/Wyniki/6a_estrogen_receptor

>  <Rbt.Executable>
rbdock ($Id: //depot/dev/client3/rdock/2013.1/src/exe/rbdock.cxx#4 $)

>  <Rbt.Library>
libRbt.so (2013.1, Build901 2013/11/27)

>  <Rbt.Parameter_File>
/home/malgorzata/Desktop/rDock_2013.1_src/data/scripts/soft_docking.prm

>  <Rbt.Receptor>
cavity.prm

>  <SCORE>
-31.2411

>  <SCORE.INTER>
-32.0995

>  <SCORE.INTER.CONST>
1

>  <SCORE.INTER.POLAR>
-0.953956

>  <SCORE.INTER.REPUL>
0

>  <SCORE.INTER.ROT>
7

>  <SCORE.INTER.VDW>
-41.256

>  <SCORE.INTER.norm>
-0.944102

>  <SCORE.INTRA>
1.74048

>  <SCORE.INTRA.DIHEDRAL>
5.82145

>  <SCORE.INTRA.DIHEDRAL.0>
18.358

>  <SCORE.INTRA.POLAR>
0

>  <SCORE.INTRA.POLAR.0>
0

>  <SCORE.INTRA.REPUL>
0

>  <SCORE.INTRA.REPUL.0>
0

>  <SCORE.INTRA.VDW>
0.576188

>  <SCORE.INTRA.VDW.0>
-1.94569

>  <SCORE.INTRA.norm>
0.0511906

>  <SCORE.RESTR>
0

>  <SCORE.RESTR.CAVITY>
0

>  <SCORE.RESTR.norm>
0

>  <SCORE.SYSTEM>
-0.882115

>  <SCORE.SYSTEM.CONST>
0

>  <SCORE.SYSTEM.DIHEDRAL>
0.805203

>  <SCORE.SYSTEM.VDW>
-1.28472

>  <SCORE.SYSTEM.norm>
-0.0259446

>  <SCORE.heavy>
34

>  <SCORE.norm>
-0.918856

$$$$
RAL.pdb
  rDOCK(R)          3D
libRbt.so/2013.1/901 2013/11/27
 36 40  0  0  0  0  0  0  0  0999 V2000
   27.3488   -1.8868   27.3601 C   0  0  0  0  0  0
   26.0361   -1.4999   27.4444 C   0  0  0  0  0  0
   25.6663   -0.2257   27.7734 C   0  0  0  0  0  0
   24.3200    0.0409   27.7944 O   0  0  0  0  0  0
   26.6562    0.7330   28.0180 C   0  0  0  0  0  0
   27.9695    0.3503   27.8988 C   0  0  0  0  0  0
   29.3472    1.2225   28.1677 S   0  0  0  0  0  0
   30.4681    0.0160   27.7967 C   0  0  0  0  0  0
   31.9420    0.1848   27.9418 C   0  0  0  0  0  0
   32.4764   -0.2910   29.1233 C   0  0  0  0  0  0
   33.8513   -0.2457   29.2881 C   0  0  0  0  0  0
   34.6758    0.2957   28.3217 C   0  0  0  0  0  0
   36.0486    0.2938   28.5753 O   0  0  0  0  0  0
   34.1450    0.7278   27.1241 C   0  0  0  0  0  0
   32.7666    0.6630   26.9610 C   0  0  0  0  0  0
   28.3259   -0.9890   27.5709 C   0  0  0  0  0  0
   29.7674   -1.1816   27.5411 C   0  0  0  0  0  0
   30.3455   -2.4092   27.2795 C   0  0  0  0  0  0
   30.2453   -3.3167   28.1147 O   0  0  0  0  0  0
   31.0952   -2.6884   26.0499 C   0  0  0  0  0  0
   32.4713   -2.7949   26.0736 C   0  0  0  0  0  0
   33.2082   -3.0423   24.9316 C   0  0  0  0  0  0
   32.5385   -3.1583   23.7148 C   0  0  0  0  0  0
   31.1588   -3.0613   23.6802 C   0  0  0  0  0  0
   30.4427   -2.8399   24.8446 C   0  0  0  0  0  0
   33.0480   -3.3872   22.4709 O   0  0  0  0  0  0
   34.4361   -3.1449   22.2992 C   0  0  0  0  0  0
   34.9870   -4.0129   21.1994 C   0  0  0  0  0  0
   34.3705   -4.4027   19.9458 N   0  0  0  0  0  0
   33.6494   -5.6760   20.1456 C   0  0  0  0  0  0
   32.8231   -6.1213   18.9223 C   0  0  0  0  0  0
   33.8191   -6.3459   17.7731 C   0  0  0  0  0  0
   34.4038   -4.9256   17.5017 C   0  0  0  0  0  0
   35.2195   -4.5315   18.7454 C   0  0  0  0  0  0
   23.9868    0.8041   27.3649 H   0  0  0  0  0  0
   36.3690    0.0389   29.4182 H   0  0  0  0  0  0
  1  2  2  0  0  0
  1 16  1  0  0  0
  2  3  1  0  0  0
  3  4  1  0  0  0
  3  5  2  0  0  0
  4 35  1  0  0  0
  5  6  1  0  0  0
  6  7  1  0  0  0
  6 16  2  0  0  0
  7  8  1  0  0  0
  8  9  1  0  0  0
  8 17  2  0  0  0
  9 10  2  0  0  0
  9 15  1  0  0  0
 10 11  1  0  0  0
 11 12  2  0  0  0
 12 13  1  0  0  0
 12 14  1  0  0  0
 13 36  1  0  0  0
 14 15  2  0  0  0
 16 17  1  0  0  0
 17 18  1  0  0  0
 18 19  2  0  0  0
 18 20  1  0  0  0
 20 21  2  0  0  0
 20 25  1  0  0  0
 21 22  1  0  0  0
 22 23  2  0  0  0
 23 24  1  0  0  0
 23 26  1  0  0  0
 24 25  2  0  0  0
 26 27  1  0  0  0
 27 28  1  0  0  0
 28 29  1  0  0  0
 29 30  1  0  0  0
 29 34  1  0  0  0
 30 31  1  0  0  0
 31 32  1  0  0  0
 32 33  1  0  0  0
 33 34  1  0  0  0
M  END
>  <CHROM.0>
-38.77168157,-60.56480275,-57.68832268

>  <CHROM.1>
-132.26515570,95.98921461,-7.97761535,111.14751007,106.57014994,-17.88658470
152.58565626,37.60030578,-91.27370790,31.43968035,-1.91116264,25.27741377
2.07758102,0.04958382,1.02455295

>  <FORMUL>
      RAL    C28 H27 N1 O4 S1

>  <HET>
 RAL  A 600      34

>  <HETNAM>
     RAL RALOXIFENE

>  <Name>
RAL.pdb

>  <RI>
0

>  <Rbt.Current_Directory>
/home/malgorzata/Desktop/rDOCK_IFD/Wyniki/6a_estrogen_receptor

>  <Rbt.Executable>
rbdock ($Id: //depot/dev/client3/rdock/2013.1/src/exe/rbdock.cxx#4 $)

>  <Rbt.Library>
libRbt.so (2013.1, Build901 2013/11/27)

>  <Rbt.Parameter_File>
/home/malgorzata/Desktop/rDock_2013.1_src/data/scripts/soft_docking.prm

>  <Rbt.Receptor>
cavity.prm

>  <SCORE>
-33.5754

>  <SCORE.INTER>
-35.5235

>  <SCORE.INTER.CONST>
1

>  <SCORE.INTER.POLAR>
-2.47488

>  <SCORE.INTER.REPUL>
0.072883

>  <SCORE.INTER.ROT>
7

>  <SCORE.INTER.VDW>
-39.8733

>  <SCORE.INTER.norm>
-1.04481

>  <SCORE.INTRA>
2.52106

>  <SCORE.INTRA.DIHEDRAL>
24.8506

>  <SCORE.INTRA.DIHEDRAL.0>
18.358

>  <SCORE.INTRA.POLAR>
0

>  <SCORE.INTRA.POLAR.0>
0

>  <SCORE.INTRA.REPUL>
0

>  <SCORE.INTRA.REPUL.0>
0

>  <SCORE.INTRA.VDW>
-2.44905

>  <SCORE.INTRA.VDW.0>
-1.94569

>  <SCORE.INTRA.norm>
0.0741488

>  <SCORE.RESTR>
0

>  <SCORE.RESTR.CAVITY>
0

>  <SCORE.RESTR.norm>
0

>  <SCORE.SYSTEM>
-0.572986

>  <SCORE.SYSTEM.CONST>
0

>  <SCORE.SYSTEM.DIHEDRAL>
0.804121

>  <SCORE.SYSTEM.VDW>
-0.975047

>  <SCORE.SYSTEM.norm>
-0.0168525

>  <SCORE.heavy>
34

>  <SCORE.norm>
-0.987513

$$$$
RAL.pdb
  rDOCK(R)          3D
libRbt.so/2013.1/901 2013/11/27
 36 40  0  0  0  0  0  0  0  0999 V2000
   33.5114   -0.3481   26.7762 C   0  0  0  0  0  0
   34.6805    0.3469   26.9496 C   0  0  0  0  0  0
   34.7260    1.5624   27.5733 C   0  0  0  0  0  0
   35.9633    2.1408   27.7098 O   0  0  0  0  0  0
   33.5438    2.1200   28.0737 C   0  0  0  0  0  0
   32.3805    1.4050   27.9285 C   0  0  0  0  0  0
   30.8374    1.8090   28.3608 S   0  0  0  0  0  0
   30.0670    0.4035   27.8311 C   0  0  0  0  0  0
   28.5904    0.2043   27.8745 C   0  0  0  0  0  0
   27.8357    1.3419   27.6636 C   0  0  0  0  0  0
   26.4574    1.2144   27.6038 C   0  0  0  0  0  0
   25.8373   -0.0055   27.7891 C   0  0  0  0  0  0
   24.4441   -0.0360   27.7070 O   0  0  0  0  0  0
   26.5942   -1.1470   27.9535 C   0  0  0  0  0  0
   27.9765   -1.0119   27.9953 C   0  0  0  0  0  0
   32.3599    0.1482   27.2592 C   0  0  0  0  0  0
   31.0191   -0.4105   27.1819 C   0  0  0  0  0  0
   30.7509   -1.6075   26.5457 C   0  0  0  0  0  0
   30.3179   -2.5608   27.2052 O   0  0  0  0  0  0
   30.9713   -1.8109   25.1097 C   0  0  0  0  0  0
   31.1712   -0.7343   24.2691 C   0  0  0  0  0  0
   31.3667   -0.8902   22.9105 C   0  0  0  0  0  0
   31.3309   -2.1754   22.3722 C   0  0  0  0  0  0
   31.1393   -3.2624   23.2062 C   0  0  0  0  0  0
   30.9729   -3.0792   24.5687 C   0  0  0  0  0  0
   31.4840   -2.5695   21.0758 O   0  0  0  0  0  0
   30.2935   -2.7974   20.3370 C   0  0  0  0  0  0
   30.5985   -2.8802   18.8651 C   0  0  0  0  0  0
   31.2585   -3.9389   18.1256 N   0  0  0  0  0  0
   30.2593   -4.6238   17.2808 C   0  0  0  0  0  0
   30.8653   -5.6748   16.3290 C   0  0  0  0  0  0
   31.5165   -6.7501   17.2138 C   0  0  0  0  0  0
   32.6727   -5.9914   17.9352 C   0  0  0  0  0  0
   32.0170   -4.9617   18.8720 C   0  0  0  0  0  0
   36.1711    2.6255   28.4843 H   0  0  0  0  0  0
   24.0038    0.4449   27.0339 H   0  0  0  0  0  0
  1  2  2  0  0  0
  1 16  1  0  0  0
  2  3  1  0  0  0
  3  4  1  0  0  0
  3  5  2  0  0  0
  4 35  1  0  0  0
  5  6  1  0  0  0
  6  7  1  0  0  0
  6 16  2  0  0  0
  7  8  1  0  0  0
  8  9  1  0  0  0
  8 17  2  0  0  0
  9 10  2  0  0  0
  9 15  1  0  0  0
 10 11  1  0  0  0
 11 12  2  0  0  0
 12 13  1  0  0  0
 12 14  1  0  0  0
 13 36  1  0  0  0
 14 15  2  0  0  0
 16 17  1  0  0  0
 17 18  1  0  0  0
 18 19  2  0  0  0
 18 20  1  0  0  0
 20 21  2  0  0  0
 20 25  1  0  0  0
 21 22  1  0  0  0
 22 23  2  0  0  0
 23 24  1  0  0  0
 23 26  1  0  0  0
 24 25  2  0  0  0
 26 27  1  0  0  0
 27 28  1  0  0  0
 28 29  1  0  0  0
 29 30  1  0  0  0
 29 34  1  0  0  0
 30 31  1  0  0  0
 31 32  1  0  0  0
 32 33  1  0  0  0
 33 34  1  0  0  0
M  END
>  <CHROM.0>
173.30456377,-60.56480275,55.43213934

>  <CHROM.1>
-143.23006513,33.88377904,42.35157031,-63.08542174,-14.75404623,-97.33512175
165.69980093,72.52443075,109.43674294,30.76051449,-1.29504782,24.53372521
-1.66308975,-0.14752951,-2.10471595

>  <FORMUL>
      RAL    C28 H27 N1 O4 S1

>  <HET>
 RAL  A 600      34

>  <HETNAM>
     RAL RALOXIFENE

>  <Name>
RAL.pdb

>  <RI>
0

>  <Rbt.Current_Directory>
/home/malgorzata/Desktop/rDOCK_IFD/Wyniki/6a_estrogen_receptor

>  <Rbt.Executable>
rbdock ($Id: //depot/dev/client3/rdock/2013.1/src/exe/rbdock.cxx#4 $)

>  <Rbt.Library>
libRbt.so (2013.1, Build901 2013/11/27)

>  <Rbt.Parameter_File>
/home/malgorzata/Desktop/rDock_2013.1_src/data/scripts/soft_docking.prm

>  <Rbt.Receptor>
cavity.prm

>  <SCORE>
-31.9407

>  <SCORE.INTER>
-32.2275

>  <SCORE.INTER.CONST>
1

>  <SCORE.INTER.POLAR>
-1.90364

>  <SCORE.INTER.REPUL>
0.119423

>  <SCORE.INTER.ROT>
7

>  <SCORE.INTER.VDW>
-38.7523

>  <SCORE.INTER.norm>
-0.947868

>  <SCORE.INTRA>
1.04109

>  <SCORE.INTRA.DIHEDRAL>
8.37148

>  <SCORE.INTRA.DIHEDRAL.0>
18.358

>  <SCORE.INTRA.POLAR>
0

>  <SCORE.INTRA.POLAR.0>
0

>  <SCORE.INTRA.REPUL>
0

>  <SCORE.INTRA.REPUL.0>
0

>  <SCORE.INTRA.VDW>
-0.633204

>  <SCORE.INTRA.VDW.0>
-1.94569

>  <SCORE.INTRA.norm>
0.0306203

>  <SCORE.RESTR>
0

>  <SCORE.RESTR.CAVITY>
0

>  <SCORE.RESTR.norm>
0

>  <SCORE.SYSTEM>
-0.75424

>  <SCORE.SYSTEM.CONST>
0

>  <SCORE.SYSTEM.DIHEDRAL>
0.804901

>  <SCORE.SYSTEM.VDW>
-1.15669

>  <SCORE.SYSTEM.norm>
-0.0221835

>  <SCORE.heavy>
34

>  <SCORE.norm>
-0.939432

$$$$
