RAL.pdb
  rDOCK(R)          3D
libRbt.so/2013.1/901 2013/11/27
 36 40  0  0  0  0  0  0  0  0999 V2000
   28.4052   -2.8230   25.3832 C   0  0  0  0  0  0
   27.3174   -3.4737   25.9057 C   0  0  0  0  0  0
   27.0943   -3.5664   27.2512 C   0  0  0  0  0  0
   25.9525   -4.2189   27.6445 O   0  0  0  0  0  0
   27.9936   -2.9630   28.1376 C   0  0  0  0  0  0
   29.0631   -2.2829   27.6093 C   0  0  0  0  0  0
   30.3082   -1.5184   28.3816 S   0  0  0  0  0  0
   31.1374   -0.9754   27.0152 C   0  0  0  0  0  0
   32.4456   -0.2631   27.0714 C   0  0  0  0  0  0
   32.6623    0.4823   28.2140 C   0  0  0  0  0  0
   33.8922    1.1001   28.3723 C   0  0  0  0  0  0
   34.8716    1.0157   27.4024 C   0  0  0  0  0  0
   36.0801    1.6682   27.6527 O   0  0  0  0  0  0
   34.6705    0.2336   26.2841 C   0  0  0  0  0  0
   33.4400   -0.3961   26.1419 C   0  0  0  0  0  0
   29.2800   -2.2167   26.2033 C   0  0  0  0  0  0
   30.4922   -1.4856   25.8689 C   0  0  0  0  0  0
   30.9237   -1.3231   24.5662 C   0  0  0  0  0  0
   30.4997   -0.3693   23.9016 O   0  0  0  0  0  0
   31.8614   -2.2471   23.9188 C   0  0  0  0  0  0
   32.6224   -3.1191   24.6710 C   0  0  0  0  0  0
   33.5250   -3.9912   24.0939 C   0  0  0  0  0  0
   33.6898   -3.9654   22.7101 C   0  0  0  0  0  0
   32.9265   -3.1013   21.9454 C   0  0  0  0  0  0
   32.0093   -2.2567   22.5479 C   0  0  0  0  0  0
   34.5187   -4.7145   21.9284 O   0  0  0  0  0  0
   35.7618   -5.0913   22.5008 C   0  0  0  0  0  0
   36.7738   -3.9904   22.3262 C   0  0  0  0  0  0
   37.1138   -3.2413   21.1318 N   0  0  0  0  0  0
   37.5327   -4.1886   20.0790 C   0  0  0  0  0  0
   37.7766   -3.5265   18.7079 C   0  0  0  0  0  0
   38.9301   -2.5281   18.8973 C   0  0  0  0  0  0
   38.3476   -1.4649   19.8785 C   0  0  0  0  0  0
   38.1274   -2.1725   21.2269 C   0  0  0  0  0  0
   25.1129   -3.8834   27.3987 H   0  0  0  0  0  0
   36.7041    1.2896   28.2404 H   0  0  0  0  0  0
  1  2  2  0  0  0
  1 16  1  0  0  0
  2  3  1  0  0  0
  3  4  1  0  0  0
  3  5  2  0  0  0
  4 35  1  0  0  0
  5  6  1  0  0  0
  6  7  1  0  0  0
  6 16  2  0  0  0
  7  8  1  0  0  0
  8  9  1  0  0  0
  8 17  2  0  0  0
  9 10  2  0  0  0
  9 15  1  0  0  0
 10 11  1  0  0  0
 11 12  2  0  0  0
 12 13  1  0  0  0
 12 14  1  0  0  0
 13 36  1  0  0  0
 14 15  2  0  0  0
 16 17  1  0  0  0
 17 18  1  0  0  0
 18 19  2  0  0  0
 18 20  1  0  0  0
 20 21  2  0  0  0
 20 25  1  0  0  0
 21 22  1  0  0  0
 22 23  2  0  0  0
 23 24  1  0  0  0
 23 26  1  0  0  0
 24 25  2  0  0  0
 26 27  1  0  0  0
 27 28  1  0  0  0
 28 29  1  0  0  0
 29 30  1  0  0  0
 29 34  1  0  0  0
 30 31  1  0  0  0
 31 32  1  0  0  0
 32 33  1  0  0  0
 33 34  1  0  0  0
M  END
>  <CHROM.0>
65.51858735,-60.56480275,-111.23203065

>  <CHROM.1>
-62.15968568,-29.45157574,76.98061926,-92.41274315,-16.92658566,-32.74144876
-84.38545974,-48.37610582,-57.09530785,32.86100522,-2.13948931,24.66306900
2.56636290,0.39207952,0.89234059

>  <FORMUL>
      RAL    C28 H27 N1 O4 S1

>  <HET>
 RAL  A 600      34

>  <HETNAM>
     RAL RALOXIFENE

>  <Name>
RAL.pdb

>  <RI>
0

>  <Rbt.Current_Directory>
/home/malgorzata/Desktop/rDOCK_IFD/test6

>  <Rbt.Executable>
rbdock ($Id: //depot/dev/client3/rdock/2013.1/src/exe/rbdock.cxx#4 $)

>  <Rbt.Library>
libRbt.so (2013.1, Build901 2013/11/27)

>  <Rbt.Parameter_File>
/home/malgorzata/Desktop/rDock_2013.1_src/data/scripts/soft_docking.prm

>  <Rbt.Receptor>
cavity.prm

>  <SCORE>
-29.6437

>  <SCORE.INTER>
-30.3837

>  <SCORE.INTER.CONST>
1

>  <SCORE.INTER.POLAR>
-1.68327

>  <SCORE.INTER.REPUL>
0.304763

>  <SCORE.INTER.ROT>
7

>  <SCORE.INTER.VDW>
-38.5844

>  <SCORE.INTER.norm>
-0.893637

>  <SCORE.INTRA>
1.11853

>  <SCORE.INTRA.DIHEDRAL>
9.62818

>  <SCORE.INTRA.DIHEDRAL.0>
18.358

>  <SCORE.INTRA.POLAR>
0

>  <SCORE.INTRA.POLAR.0>
0

>  <SCORE.INTRA.REPUL>
0

>  <SCORE.INTRA.REPUL.0>
0

>  <SCORE.INTRA.VDW>
-0.807107

>  <SCORE.INTRA.VDW.0>
-1.94569

>  <SCORE.INTRA.norm>
0.0328979

>  <SCORE.RESTR>
0.129095

>  <SCORE.RESTR.CAVITY>
0.129095

>  <SCORE.RESTR.norm>
0.00379691

>  <SCORE.SYSTEM>
-0.50764

>  <SCORE.SYSTEM.CONST>
0

>  <SCORE.SYSTEM.DIHEDRAL>
0.805499

>  <SCORE.SYSTEM.VDW>
-0.91039

>  <SCORE.SYSTEM.norm>
-0.0149306

>  <SCORE.heavy>
34

>  <SCORE.norm>
-0.871873

$$$$
RAL.pdb
  rDOCK(R)          3D
libRbt.so/2013.1/901 2013/11/27
 36 40  0  0  0  0  0  0  0  0999 V2000
   34.7589    0.4958   27.1110 C   0  0  0  0  0  0
   35.3094    1.7427   27.2601 C   0  0  0  0  0  0
   34.5512    2.8570   27.4883 C   0  0  0  0  0  0
   35.2263    4.0412   27.6491 O   0  0  0  0  0  0
   33.1614    2.7299   27.5936 C   0  0  0  0  0  0
   32.6171    1.4745   27.4781 C   0  0  0  0  0  0
   31.0314    1.0096   27.5055 S   0  0  0  0  0  0
   31.2670   -0.6495   27.3017 C   0  0  0  0  0  0
   30.1540   -1.6302   27.1561 C   0  0  0  0  0  0
   29.2581   -1.3586   26.1403 C   0  0  0  0  0  0
   28.2485   -2.2744   25.8921 C   0  0  0  0  0  0
   28.1043   -3.4140   26.6586 C   0  0  0  0  0  0
   27.0594   -4.2797   26.3305 O   0  0  0  0  0  0
   29.0266   -3.7063   27.6418 C   0  0  0  0  0  0
   30.0456   -2.7902   27.8725 C   0  0  0  0  0  0
   33.4299    0.3332   27.2236 C   0  0  0  0  0  0
   32.6429   -0.8834   27.0953 C   0  0  0  0  0  0
   33.2148   -2.1092   26.8126 C   0  0  0  0  0  0
   33.6626   -2.7973   27.7385 O   0  0  0  0  0  0
   33.3320   -2.6356   25.4483 C   0  0  0  0  0  0
   34.0686   -3.7750   25.1946 C   0  0  0  0  0  0
   34.2112   -4.2883   23.9200 C   0  0  0  0  0  0
   33.6145   -3.6139   22.8561 C   0  0  0  0  0  0
   32.8671   -2.4755   23.0996 C   0  0  0  0  0  0
   32.7181   -1.9981   24.3909 C   0  0  0  0  0  0
   33.6275   -3.9205   21.5275 O   0  0  0  0  0  0
   33.5722   -2.8275   20.6235 C   0  0  0  0  0  0
   32.6799   -3.1578   19.4568 C   0  0  0  0  0  0
   31.4126   -2.5634   19.0771 N   0  0  0  0  0  0
   30.3172   -3.4200   19.5744 C   0  0  0  0  0  0
   28.9131   -2.8177   19.3659 C   0  0  0  0  0  0
   28.7146   -2.6722   17.8485 C   0  0  0  0  0  0
   29.7865   -1.6193   17.4300 C   0  0  0  0  0  0
   31.1635   -2.2688   17.6525 C   0  0  0  0  0  0
   35.1518    4.5178   28.4524 H   0  0  0  0  0  0
   26.3600   -3.9832   25.7819 H   0  0  0  0  0  0
  1  2  2  0  0  0
  1 16  1  0  0  0
  2  3  1  0  0  0
  3  4  1  0  0  0
  3  5  2  0  0  0
  4 35  1  0  0  0
  5  6  1  0  0  0
  6  7  1  0  0  0
  6 16  2  0  0  0
  7  8  1  0  0  0
  8  9  1  0  0  0
  8 17  2  0  0  0
  9 10  2  0  0  0
  9 15  1  0  0  0
 10 11  1  0  0  0
 11 12  2  0  0  0
 12 13  1  0  0  0
 12 14  1  0  0  0
 13 36  1  0  0  0
 14 15  2  0  0  0
 16 17  1  0  0  0
 17 18  1  0  0  0
 18 19  2  0  0  0
 18 20  1  0  0  0
 20 21  2  0  0  0
 20 25  1  0  0  0
 21 22  1  0  0  0
 22 23  2  0  0  0
 23 24  1  0  0  0
 23 26  1  0  0  0
 24 25  2  0  0  0
 26 27  1  0  0  0
 27 28  1  0  0  0
 28 29  1  0  0  0
 29 30  1  0  0  0
 29 34  1  0  0  0
 30 31  1  0  0  0
 31 32  1  0  0  0
 32 33  1  0  0  0
 33 34  1  0  0  0
M  END
>  <CHROM.0>
-143.87119509,-60.56480275,128.87290986

>  <CHROM.1>
-119.16419866,55.02395924,-16.40372143,-94.13682723,171.15563379,-148.74385446
-140.08951393,114.09292677,-98.02724208,31.82304265,-1.54468371,24.53724766
-1.29418272,-0.57313682,-1.83546095

>  <FORMUL>
      RAL    C28 H27 N1 O4 S1

>  <HET>
 RAL  A 600      34

>  <HETNAM>
     RAL RALOXIFENE

>  <Name>
RAL.pdb

>  <RI>
0

>  <Rbt.Current_Directory>
/home/malgorzata/Desktop/rDOCK_IFD/test6

>  <Rbt.Executable>
rbdock ($Id: //depot/dev/client3/rdock/2013.1/src/exe/rbdock.cxx#4 $)

>  <Rbt.Library>
libRbt.so (2013.1, Build901 2013/11/27)

>  <Rbt.Parameter_File>
/home/malgorzata/Desktop/rDock_2013.1_src/data/scripts/soft_docking.prm

>  <Rbt.Receptor>
cavity.prm

>  <SCORE>
-26.1717

>  <SCORE.INTER>
-33.2704

>  <SCORE.INTER.CONST>
1

>  <SCORE.INTER.POLAR>
-1.18811

>  <SCORE.INTER.REPUL>
0.0154567

>  <SCORE.INTER.ROT>
7

>  <SCORE.INTER.VDW>
-41.7081

>  <SCORE.INTER.norm>
-0.978541

>  <SCORE.INTRA>
7.38027

>  <SCORE.INTRA.DIHEDRAL>
20.0704

>  <SCORE.INTRA.DIHEDRAL.0>
18.358

>  <SCORE.INTRA.POLAR>
0

>  <SCORE.INTRA.POLAR.0>
0

>  <SCORE.INTRA.REPUL>
0

>  <SCORE.INTRA.REPUL.0>
0

>  <SCORE.INTRA.VDW>
3.36619

>  <SCORE.INTRA.VDW.0>
-1.94569

>  <SCORE.INTRA.norm>
0.217067

>  <SCORE.RESTR>
0.366768

>  <SCORE.RESTR.CAVITY>
0.366768

>  <SCORE.RESTR.norm>
0.0107873

>  <SCORE.SYSTEM>
-0.648365

>  <SCORE.SYSTEM.CONST>
0

>  <SCORE.SYSTEM.DIHEDRAL>
0.805571

>  <SCORE.SYSTEM.VDW>
-1.05115

>  <SCORE.SYSTEM.norm>
-0.0190696

>  <SCORE.heavy>
34

>  <SCORE.norm>
-0.769757

$$$$
RAL.pdb
  rDOCK(R)          3D
libRbt.so/2013.1/901 2013/11/27
 36 40  0  0  0  0  0  0  0  0999 V2000
   32.9070   -0.9717   27.8200 C   0  0  0  0  0  0
   34.0786   -0.3918   28.2334 C   0  0  0  0  0  0
   34.1118    0.8023   28.8981 C   0  0  0  0  0  0
   35.3469    1.2605   29.2836 O   0  0  0  0  0  0
   32.9099    1.4578   29.1889 C   0  0  0  0  0  0
   31.7369    0.8568   28.8036 C   0  0  0  0  0  0
   30.1814    1.3942   28.9548 S   0  0  0  0  0  0
   29.4047    0.0766   28.2404 C   0  0  0  0  0  0
   27.9349    0.0147   28.0004 C   0  0  0  0  0  0
   27.3093    1.2376   27.8547 C   0  0  0  0  0  0
   25.9595    1.2524   27.5428 C   0  0  0  0  0  0
   25.2355    0.0831   27.4179 C   0  0  0  0  0  0
   23.8815    0.1981   27.0977 O   0  0  0  0  0  0
   25.8713   -1.1369   27.5182 C   0  0  0  0  0  0
   27.2289   -1.1418   27.8145 C   0  0  0  0  0  0
   31.7330   -0.3798   28.0974 C   0  0  0  0  0  0
   30.3873   -0.8099   27.7513 C   0  0  0  0  0  0
   30.1402   -1.9646   27.0336 C   0  0  0  0  0  0
   29.2895   -2.7637   27.4448 O   0  0  0  0  0  0
   30.8572   -2.3014   25.7988 C   0  0  0  0  0  0
   31.7609   -3.3444   25.7721 C   0  0  0  0  0  0
   32.4634   -3.6780   24.6303 C   0  0  0  0  0  0
   32.2714   -2.9155   23.4795 C   0  0  0  0  0  0
   31.3622   -1.8729   23.4924 C   0  0  0  0  0  0
   30.6514   -1.5774   24.6435 C   0  0  0  0  0  0
   32.8539   -3.0467   22.2536 O   0  0  0  0  0  0
   32.4631   -4.1726   21.4825 C   0  0  0  0  0  0
   33.4956   -4.4685   20.4276 C   0  0  0  0  0  0
   33.4119   -5.3667   19.2919 N   0  0  0  0  0  0
   34.3933   -6.4554   19.4727 C   0  0  0  0  0  0
   34.2984   -7.5622   18.4032 C   0  0  0  0  0  0
   34.6083   -6.8993   17.0513 C   0  0  0  0  0  0
   33.4325   -5.8948   16.8487 C   0  0  0  0  0  0
   33.5753   -4.8130   17.9335 C   0  0  0  0  0  0
   35.4271    2.0942   29.7036 H   0  0  0  0  0  0
   23.4361    1.0117   27.2307 H   0  0  0  0  0  0
  1  2  2  0  0  0
  1 16  1  0  0  0
  2  3  1  0  0  0
  3  4  1  0  0  0
  3  5  2  0  0  0
  4 35  1  0  0  0
  5  6  1  0  0  0
  6  7  1  0  0  0
  6 16  2  0  0  0
  7  8  1  0  0  0
  8  9  1  0  0  0
  8 17  2  0  0  0
  9 10  2  0  0  0
  9 15  1  0  0  0
 10 11  1  0  0  0
 11 12  2  0  0  0
 12 13  1  0  0  0
 12 14  1  0  0  0
 13 36  1  0  0  0
 14 15  2  0  0  0
 16 17  1  0  0  0
 17 18  1  0  0  0
 18 19  2  0  0  0
 18 20  1  0  0  0
 20 21  2  0  0  0
 20 25  1  0  0  0
 21 22  1  0  0  0
 22 23  2  0  0  0
 23 24  1  0  0  0
 23 26  1  0  0  0
 24 25  2  0  0  0
 26 27  1  0  0  0
 27 28  1  0  0  0
 28 29  1  0  0  0
 29 30  1  0  0  0
 29 34  1  0  0  0
 30 31  1  0  0  0
 31 32  1  0  0  0
 32 33  1  0  0  0
 33 34  1  0  0  0
M  END
>  <CHROM.0>
176.41089956,-60.56480275,-97.29663435

>  <CHROM.1>
176.91322770,26.34832069,-18.71022733,-48.25667447,110.08135654,70.69224566
-159.66408177,-168.57720434,-115.09797808,31.10057021,-1.84266794,25.16708345
-1.97111442,0.02952602,-2.13618170

>  <FORMUL>
      RAL    C28 H27 N1 O4 S1

>  <HET>
 RAL  A 600      34

>  <HETNAM>
     RAL RALOXIFENE

>  <Name>
RAL.pdb

>  <RI>
0

>  <Rbt.Current_Directory>
/home/malgorzata/Desktop/rDOCK_IFD/test6

>  <Rbt.Executable>
rbdock ($Id: //depot/dev/client3/rdock/2013.1/src/exe/rbdock.cxx#4 $)

>  <Rbt.Library>
libRbt.so (2013.1, Build901 2013/11/27)

>  <Rbt.Parameter_File>
/home/malgorzata/Desktop/rDock_2013.1_src/data/scripts/soft_docking.prm

>  <Rbt.Receptor>
cavity.prm

>  <SCORE>
-34.9491

>  <SCORE.INTER>
-36.0483

>  <SCORE.INTER.CONST>
1

>  <SCORE.INTER.POLAR>
-1.87557

>  <SCORE.INTER.REPUL>
0.0281528

>  <SCORE.INTER.ROT>
7

>  <SCORE.INTER.VDW>
-42.2122

>  <SCORE.INTER.norm>
-1.06024

>  <SCORE.INTRA>
1.6842

>  <SCORE.INTRA.DIHEDRAL>
11.6464

>  <SCORE.INTRA.DIHEDRAL.0>
18.358

>  <SCORE.INTRA.POLAR>
0

>  <SCORE.INTRA.POLAR.0>
0

>  <SCORE.INTRA.REPUL>
0

>  <SCORE.INTRA.REPUL.0>
0

>  <SCORE.INTRA.VDW>
-0.645089

>  <SCORE.INTRA.VDW.0>
-1.94569

>  <SCORE.INTRA.norm>
0.0495353

>  <SCORE.RESTR>
0.0216363

>  <SCORE.RESTR.CAVITY>
0.0216363

>  <SCORE.RESTR.norm>
0.000636361

>  <SCORE.SYSTEM>
-0.606628

>  <SCORE.SYSTEM.CONST>
0

>  <SCORE.SYSTEM.DIHEDRAL>
0.806656

>  <SCORE.SYSTEM.VDW>
-1.00996

>  <SCORE.SYSTEM.norm>
-0.017842

>  <SCORE.heavy>
34

>  <SCORE.norm>
-1.02792

$$$$
RAL.pdb
  rDOCK(R)          3D
libRbt.so/2013.1/901 2013/11/27
 36 40  0  0  0  0  0  0  0  0999 V2000
   27.5843   -0.3682   27.9645 C   0  0  0  0  0  0
   26.3512   -0.6763   28.4787 C   0  0  0  0  0  0
   25.7414   -1.8786   28.2525 C   0  0  0  0  0  0
   24.5206   -2.0739   28.8488 O   0  0  0  0  0  0
   26.3986   -2.8458   27.4835 C   0  0  0  0  0  0
   27.6480   -2.5463   26.9991 C   0  0  0  0  0  0
   28.6439   -3.4438   26.0327 S   0  0  0  0  0  0
   29.9265   -2.3508   25.9335 C   0  0  0  0  0  0
   31.1371   -2.5719   25.0925 C   0  0  0  0  0  0
   31.4302   -1.5567   24.2027 C   0  0  0  0  0  0
   32.5899   -1.6560   23.4511 C   0  0  0  0  0  0
   33.4203   -2.7551   23.5484 C   0  0  0  0  0  0
   34.5683   -2.7640   22.7541 O   0  0  0  0  0  0
   33.1503   -3.7452   24.4701 C   0  0  0  0  0  0
   31.9938   -3.6289   25.2316 C   0  0  0  0  0  0
   28.2524   -1.2788   27.2365 C   0  0  0  0  0  0
   29.5532   -1.1625   26.5963 C   0  0  0  0  0  0
   30.3100   -0.0081   26.6605 C   0  0  0  0  0  0
   29.8062    1.0672   26.3125 O   0  0  0  0  0  0
   31.7054    0.0031   27.1132 C   0  0  0  0  0  0
   32.2933    1.1722   27.5525 C   0  0  0  0  0  0
   33.6089    1.2199   27.9712 C   0  0  0  0  0  0
   34.3708    0.0540   27.9189 C   0  0  0  0  0  0
   33.7898   -1.1252   27.4879 C   0  0  0  0  0  0
   32.4608   -1.1504   27.0995 C   0  0  0  0  0  0
   35.6761   -0.1368   28.2641 O   0  0  0  0  0  0
   36.2725    0.8674   29.0709 C   0  0  0  0  0  0
   36.7106    2.0302   28.2210 C   0  0  0  0  0  0
   37.5929    3.1302   28.5602 N   0  0  0  0  0  0
   36.8562    4.0862   29.4114 C   0  0  0  0  0  0
   37.7318    5.2281   29.9656 C   0  0  0  0  0  0
   38.2514    6.0164   28.7525 C   0  0  0  0  0  0
   39.1623    4.9948   28.0046 C   0  0  0  0  0  0
   38.2433    3.8827   27.4697 C   0  0  0  0  0  0
   24.4169   -2.7440   29.4955 H   0  0  0  0  0  0
   34.8545   -3.5611   22.3532 H   0  0  0  0  0  0
  1  2  2  0  0  0
  1 16  1  0  0  0
  2  3  1  0  0  0
  3  4  1  0  0  0
  3  5  2  0  0  0
  4 35  1  0  0  0
  5  6  1  0  0  0
  6  7  1  0  0  0
  6 16  2  0  0  0
  7  8  1  0  0  0
  8  9  1  0  0  0
  8 17  2  0  0  0
  9 10  2  0  0  0
  9 15  1  0  0  0
 10 11  1  0  0  0
 11 12  2  0  0  0
 12 13  1  0  0  0
 12 14  1  0  0  0
 13 36  1  0  0  0
 14 15  2  0  0  0
 16 17  1  0  0  0
 17 18  1  0  0  0
 18 19  2  0  0  0
 18 20  1  0  0  0
 20 21  2  0  0  0
 20 25  1  0  0  0
 21 22  1  0  0  0
 22 23  2  0  0  0
 23 24  1  0  0  0
 23 26  1  0  0  0
 24 25  2  0  0  0
 26 27  1  0  0  0
 27 28  1  0  0  0
 28 29  1  0  0  0
 29 30  1  0  0  0
 29 34  1  0  0  0
 30 31  1  0  0  0
 31 32  1  0  0  0
 32 33  1  0  0  0
 33 34  1  0  0  0
M  END
>  <CHROM.0>
19.55525600,-60.56480275,-126.09529750

>  <CHROM.1>
-116.00382285,125.61885262,-141.35567083,126.58567276,-159.97708789,16.50336051
-81.23344155,-165.92314550,-76.30388296,32.23485340,-0.24553377,26.99488774
2.65062047,-0.27815502,-2.39785492

>  <FORMUL>
      RAL    C28 H27 N1 O4 S1

>  <HET>
 RAL  A 600      34

>  <HETNAM>
     RAL RALOXIFENE

>  <Name>
RAL.pdb

>  <RI>
0

>  <Rbt.Current_Directory>
/home/malgorzata/Desktop/rDOCK_IFD/test6

>  <Rbt.Executable>
rbdock ($Id: //depot/dev/client3/rdock/2013.1/src/exe/rbdock.cxx#4 $)

>  <Rbt.Library>
libRbt.so (2013.1, Build901 2013/11/27)

>  <Rbt.Parameter_File>
/home/malgorzata/Desktop/rDock_2013.1_src/data/scripts/soft_docking.prm

>  <Rbt.Receptor>
cavity.prm

>  <SCORE>
-34.7109

>  <SCORE.INTER>
-36.3992

>  <SCORE.INTER.CONST>
1

>  <SCORE.INTER.POLAR>
-1.54401

>  <SCORE.INTER.REPUL>
0.406608

>  <SCORE.INTER.ROT>
7

>  <SCORE.INTER.VDW>
-45.5826

>  <SCORE.INTER.norm>
-1.07057

>  <SCORE.INTRA>
1.6378

>  <SCORE.INTRA.DIHEDRAL>
7.97562

>  <SCORE.INTRA.DIHEDRAL.0>
18.358

>  <SCORE.INTRA.POLAR>
0

>  <SCORE.INTRA.POLAR.0>
0

>  <SCORE.INTRA.REPUL>
0

>  <SCORE.INTRA.REPUL.0>
0

>  <SCORE.INTRA.VDW>
0.0426761

>  <SCORE.INTRA.VDW.0>
-1.94569

>  <SCORE.INTRA.norm>
0.0481706

>  <SCORE.RESTR>
0.435585

>  <SCORE.RESTR.CAVITY>
0.435585

>  <SCORE.RESTR.norm>
0.0128113

>  <SCORE.SYSTEM>
-0.385042

>  <SCORE.SYSTEM.CONST>
0

>  <SCORE.SYSTEM.DIHEDRAL>
0.803515

>  <SCORE.SYSTEM.VDW>
-0.7868

>  <SCORE.SYSTEM.norm>
-0.0113248

>  <SCORE.heavy>
34

>  <SCORE.norm>
-1.02091

$$$$
RAL.pdb
  rDOCK(R)          3D
libRbt.so/2013.1/901 2013/11/27
 36 40  0  0  0  0  0  0  0  0999 V2000
   28.9396   -2.9272   28.3318 C   0  0  0  0  0  0
   27.6281   -2.8764   28.7283 C   0  0  0  0  0  0
   26.9942   -1.7004   29.0181 C   0  0  0  0  0  0
   25.6714   -1.7834   29.3748 O   0  0  0  0  0  0
   27.6949   -0.4955   28.8916 C   0  0  0  0  0  0
   28.9977   -0.5482   28.4612 C   0  0  0  0  0  0
   30.0893    0.6766   28.2620 S   0  0  0  0  0  0
   31.3920   -0.2520   27.7229 C   0  0  0  0  0  0
   32.7466    0.3060   27.4482 C   0  0  0  0  0  0
   33.7998   -0.4178   27.9725 C   0  0  0  0  0  0
   35.0901   -0.0050   27.6822 C   0  0  0  0  0  0
   35.3327    1.1230   26.9234 C   0  0  0  0  0  0
   36.6659    1.4581   26.6805 O   0  0  0  0  0  0
   34.2809    1.8175   26.3628 C   0  0  0  0  0  0
   32.9907    1.3862   26.6456 C   0  0  0  0  0  0
   29.6382   -1.7892   28.1824 C   0  0  0  0  0  0
   31.0261   -1.6132   27.7843 C   0  0  0  0  0  0
   31.8558   -2.6806   27.4984 C   0  0  0  0  0  0
   32.2813   -3.3827   28.4243 O   0  0  0  0  0  0
   32.2747   -3.0179   26.1335 C   0  0  0  0  0  0
   32.2660   -4.3279   25.6983 C   0  0  0  0  0  0
   32.6682   -4.6809   24.4247 C   0  0  0  0  0  0
   33.1240   -3.6825   23.5657 C   0  0  0  0  0  0
   33.1296   -2.3652   23.9884 C   0  0  0  0  0  0
   32.6952   -2.0361   25.2615 C   0  0  0  0  0  0
   33.5769   -3.7910   22.2841 O   0  0  0  0  0  0
   34.8450   -4.4044   22.1090 C   0  0  0  0  0  0
   35.6142   -3.7134   21.0148 C   0  0  0  0  0  0
   37.0363   -3.7499   20.7327 N   0  0  0  0  0  0
   37.2845   -3.0646   19.4482 C   0  0  0  0  0  0
   38.7799   -2.9026   19.1085 C   0  0  0  0  0  0
   39.3607   -4.3201   18.9797 C   0  0  0  0  0  0
   39.2272   -4.9113   20.4168 C   0  0  0  0  0  0
   37.7225   -5.0564   20.7038 C   0  0  0  0  0  0
   25.3769   -1.3965   30.1758 H   0  0  0  0  0  0
   36.8832    2.3094   26.3548 H   0  0  0  0  0  0
  1  2  2  0  0  0
  1 16  1  0  0  0
  2  3  1  0  0  0
  3  4  1  0  0  0
  3  5  2  0  0  0
  4 35  1  0  0  0
  5  6  1  0  0  0
  6  7  1  0  0  0
  6 16  2  0  0  0
  7  8  1  0  0  0
  8  9  1  0  0  0
  8 17  2  0  0  0
  9 10  2  0  0  0
  9 15  1  0  0  0
 10 11  1  0  0  0
 11 12  2  0  0  0
 12 13  1  0  0  0
 12 14  1  0  0  0
 13 36  1  0  0  0
 14 15  2  0  0  0
 16 17  1  0  0  0
 17 18  1  0  0  0
 18 19  2  0  0  0
 18 20  1  0  0  0
 20 21  2  0  0  0
 20 25  1  0  0  0
 21 22  1  0  0  0
 22 23  2  0  0  0
 23 24  1  0  0  0
 23 26  1  0  0  0
 24 25  2  0  0  0
 26 27  1  0  0  0
 27 28  1  0  0  0
 28 29  1  0  0  0
 29 30  1  0  0  0
 29 34  1  0  0  0
 30 31  1  0  0  0
 31 32  1  0  0  0
 32 33  1  0  0  0
 33 34  1  0  0  0
M  END
>  <CHROM.0>
-93.60896708,-60.56480275,111.69587413

>  <CHROM.1>
126.23513509,133.57436873,-165.32114259,106.90540281,-135.78786203,-71.22249849
-141.99519454,161.89796702,172.18279554,32.98241053,-1.97360870,25.45176370
2.48814713,0.48573320,0.69363045

>  <FORMUL>
      RAL    C28 H27 N1 O4 S1

>  <HET>
 RAL  A 600      34

>  <HETNAM>
     RAL RALOXIFENE

>  <Name>
RAL.pdb

>  <RI>
0

>  <Rbt.Current_Directory>
/home/malgorzata/Desktop/rDOCK_IFD/test6

>  <Rbt.Executable>
rbdock ($Id: //depot/dev/client3/rdock/2013.1/src/exe/rbdock.cxx#4 $)

>  <Rbt.Library>
libRbt.so (2013.1, Build901 2013/11/27)

>  <Rbt.Parameter_File>
/home/malgorzata/Desktop/rDock_2013.1_src/data/scripts/soft_docking.prm

>  <Rbt.Receptor>
cavity.prm

>  <SCORE>
-33.2742

>  <SCORE.INTER>
-34.2492

>  <SCORE.INTER.CONST>
1

>  <SCORE.INTER.POLAR>
-1.43971

>  <SCORE.INTER.REPUL>
0

>  <SCORE.INTER.ROT>
7

>  <SCORE.INTER.VDW>
-41.7542

>  <SCORE.INTER.norm>
-1.00733

>  <SCORE.INTRA>
1.71677

>  <SCORE.INTRA.DIHEDRAL>
18.8842

>  <SCORE.INTRA.DIHEDRAL.0>
18.358

>  <SCORE.INTRA.POLAR>
0

>  <SCORE.INTRA.POLAR.0>
0

>  <SCORE.INTRA.REPUL>
0

>  <SCORE.INTRA.REPUL.0>
0

>  <SCORE.INTRA.VDW>
-2.06007

>  <SCORE.INTRA.VDW.0>
-1.94569

>  <SCORE.INTRA.norm>
0.0504932

>  <SCORE.RESTR>
0.121079

>  <SCORE.RESTR.CAVITY>
0.121079

>  <SCORE.RESTR.norm>
0.00356116

>  <SCORE.SYSTEM>
-0.862856

>  <SCORE.SYSTEM.CONST>
0

>  <SCORE.SYSTEM.DIHEDRAL>
0.803235

>  <SCORE.SYSTEM.VDW>
-1.26447

>  <SCORE.SYSTEM.norm>
-0.0253781

>  <SCORE.heavy>
34

>  <SCORE.norm>
-0.978653

$$$$
RAL.pdb
  rDOCK(R)          3D
libRbt.so/2013.1/901 2013/11/27
 36 40  0  0  0  0  0  0  0  0999 V2000
   32.8873   -0.1839   27.4347 C   0  0  0  0  0  0
   34.0191   -0.1929   28.2086 C   0  0  0  0  0  0
   33.9737   -0.2119   29.5748 C   0  0  0  0  0  0
   35.1780   -0.2495   30.2323 O   0  0  0  0  0  0
   32.7313   -0.2416   30.2183 C   0  0  0  0  0  0
   31.6009   -0.2673   29.4393 C   0  0  0  0  0  0
   30.0115   -0.2543   29.8921 S   0  0  0  0  0  0
   29.3251   -0.3012   28.3506 C   0  0  0  0  0  0
   27.8586   -0.2209   28.0965 C   0  0  0  0  0  0
   27.2842    1.0110   28.3425 C   0  0  0  0  0  0
   25.9418    1.1815   28.0450 C   0  0  0  0  0  0
   25.1749    0.1438   27.5530 C   0  0  0  0  0  0
   23.8325    0.4121   27.2793 O   0  0  0  0  0  0
   25.7605   -1.0714   27.2648 C   0  0  0  0  0  0
   27.1112   -1.2280   27.5507 C   0  0  0  0  0  0
   31.6775   -0.2297   28.0177 C   0  0  0  0  0  0
   30.3621   -0.2213   27.3972 C   0  0  0  0  0  0
   30.1893   -0.1518   26.0279 C   0  0  0  0  0  0
   29.3559    0.6349   25.5612 O   0  0  0  0  0  0
   30.9453   -0.9871   25.0883 C   0  0  0  0  0  0
   31.1001   -2.3396   25.3165 C   0  0  0  0  0  0
   31.8181   -3.1512   24.4597 C   0  0  0  0  0  0
   32.4281   -2.5757   23.3465 C   0  0  0  0  0  0
   32.2731   -1.2226   23.1034 C   0  0  0  0  0  0
   31.5250   -0.4373   23.9644 C   0  0  0  0  0  0
   33.1868   -3.1666   22.3797 O   0  0  0  0  0  0
   32.4871   -3.8801   21.3716 C   0  0  0  0  0  0
   33.3871   -4.1390   20.1930 C   0  0  0  0  0  0
   34.1356   -3.1927   19.3881 N   0  0  0  0  0  0
   34.8032   -3.9236   18.2920 C   0  0  0  0  0  0
   35.5108   -3.0069   17.2738 C   0  0  0  0  0  0
   36.6078   -2.2538   18.0437 C   0  0  0  0  0  0
   35.8156   -1.3715   19.0570 C   0  0  0  0  0  0
   35.1345   -2.3303   20.0491 C   0  0  0  0  0  0
   35.5410   -1.0713   30.4986 H   0  0  0  0  0  0
   23.5147    0.3623   26.3992 H   0  0  0  0  0  0
  1  2  2  0  0  0
  1 16  1  0  0  0
  2  3  1  0  0  0
  3  4  1  0  0  0
  3  5  2  0  0  0
  4 35  1  0  0  0
  5  6  1  0  0  0
  6  7  1  0  0  0
  6 16  2  0  0  0
  7  8  1  0  0  0
  8  9  1  0  0  0
  8 17  2  0  0  0
  9 10  2  0  0  0
  9 15  1  0  0  0
 10 11  1  0  0  0
 11 12  2  0  0  0
 12 13  1  0  0  0
 12 14  1  0  0  0
 13 36  1  0  0  0
 14 15  2  0  0  0
 16 17  1  0  0  0
 17 18  1  0  0  0
 18 19  2  0  0  0
 18 20  1  0  0  0
 20 21  2  0  0  0
 20 25  1  0  0  0
 21 22  1  0  0  0
 22 23  2  0  0  0
 23 24  1  0  0  0
 23 26  1  0  0  0
 24 25  2  0  0  0
 26 27  1  0  0  0
 27 28  1  0  0  0
 28 29  1  0  0  0
 29 30  1  0  0  0
 29 34  1  0  0  0
 30 31  1  0  0  0
 31 32  1  0  0  0
 32 33  1  0  0  0
 33 34  1  0  0  0
M  END
>  <CHROM.0>
168.80649682,-60.56480275,-133.43083382

>  <CHROM.1>
-94.33100353,70.21076566,115.67389585,46.50743468,45.90843840,78.52606049
164.14795603,-55.92683728,-176.44311048,31.33012963,-1.15627275,25.25840078
-2.15673480,0.08117787,-1.83206574

>  <FORMUL>
      RAL    C28 H27 N1 O4 S1

>  <HET>
 RAL  A 600      34

>  <HETNAM>
     RAL RALOXIFENE

>  <Name>
RAL.pdb

>  <RI>
0

>  <Rbt.Current_Directory>
/home/malgorzata/Desktop/rDOCK_IFD/test6

>  <Rbt.Executable>
rbdock ($Id: //depot/dev/client3/rdock/2013.1/src/exe/rbdock.cxx#4 $)

>  <Rbt.Library>
libRbt.so (2013.1, Build901 2013/11/27)

>  <Rbt.Parameter_File>
/home/malgorzata/Desktop/rDock_2013.1_src/data/scripts/soft_docking.prm

>  <Rbt.Receptor>
cavity.prm

>  <SCORE>
-31.5625

>  <SCORE.INTER>
-32.6096

>  <SCORE.INTER.CONST>
1

>  <SCORE.INTER.POLAR>
-2.2744

>  <SCORE.INTER.REPUL>
0

>  <SCORE.INTER.ROT>
7

>  <SCORE.INTER.VDW>
-37.2766

>  <SCORE.INTER.norm>
-0.959105

>  <SCORE.INTRA>
1.57106

>  <SCORE.INTRA.DIHEDRAL>
20.3161

>  <SCORE.INTRA.DIHEDRAL.0>
18.358

>  <SCORE.INTRA.POLAR>
0

>  <SCORE.INTRA.POLAR.0>
0

>  <SCORE.INTRA.REPUL>
0

>  <SCORE.INTRA.REPUL.0>
0

>  <SCORE.INTRA.VDW>
-2.49217

>  <SCORE.INTRA.VDW.0>
-1.94569

>  <SCORE.INTRA.norm>
0.0462075

>  <SCORE.RESTR>
0.0209493

>  <SCORE.RESTR.CAVITY>
0.0209493

>  <SCORE.RESTR.norm>
0.000616155

>  <SCORE.SYSTEM>
-0.544887

>  <SCORE.SYSTEM.CONST>
0

>  <SCORE.SYSTEM.DIHEDRAL>
0.80271

>  <SCORE.SYSTEM.VDW>
-0.946242

>  <SCORE.SYSTEM.norm>
-0.0160261

>  <SCORE.heavy>
34

>  <SCORE.norm>
-0.928308

$$$$
RAL.pdb
  rDOCK(R)          3D
libRbt.so/2013.1/901 2013/11/27
 36 40  0  0  0  0  0  0  0  0999 V2000
   33.4163   -0.4253   27.7607 C   0  0  0  0  0  0
   34.5552    0.3276   27.8872 C   0  0  0  0  0  0
   34.5373    1.6943   27.8671 C   0  0  0  0  0  0
   35.7422    2.3303   28.0336 O   0  0  0  0  0  0
   33.3144    2.3612   27.7307 C   0  0  0  0  0  0
   32.1726    1.6041   27.6389 C   0  0  0  0  0  0
   30.6065    2.0856   27.4231 S   0  0  0  0  0  0
   29.8864    0.5589   27.4246 C   0  0  0  0  0  0
   28.4350    0.3297   27.1742 C   0  0  0  0  0  0
   27.8010   -0.4887   28.0887 C   0  0  0  0  0  0
   26.4334   -0.6747   27.9669 C   0  0  0  0  0  0
   25.7158   -0.0961   26.9386 C   0  0  0  0  0  0
   24.3414   -0.3377   26.9005 O   0  0  0  0  0  0
   26.3422    0.7573   26.0542 C   0  0  0  0  0  0
   27.7110    0.9512   26.1943 C   0  0  0  0  0  0
   32.2226    0.1809   27.6458 C   0  0  0  0  0  0
   30.9046   -0.4153   27.4939 C   0  0  0  0  0  0
   30.7120   -1.7825   27.4377 C   0  0  0  0  0  0
   29.8004   -2.2941   28.1000 O   0  0  0  0  0  0
   31.5562   -2.6714   26.6318 C   0  0  0  0  0  0
   32.5016   -3.4787   27.2317 C   0  0  0  0  0  0
   33.3223   -4.3157   26.5008 C   0  0  0  0  0  0
   33.2080   -4.3197   25.1117 C   0  0  0  0  0  0
   32.2585   -3.5207   24.5002 C   0  0  0  0  0  0
   31.4302   -2.7112   25.2593 C   0  0  0  0  0  0
   33.9089   -5.0437   24.1930 O   0  0  0  0  0  0
   34.9216   -4.3517   23.4784 C   0  0  0  0  0  0
   35.9394   -5.3222   22.9410 C   0  0  0  0  0  0
   37.0491   -5.0785   22.0396 N   0  0  0  0  0  0
   36.5600   -4.3041   20.8810 C   0  0  0  0  0  0
   37.6774   -3.8495   19.9205 C   0  0  0  0  0  0
   38.3290   -5.1256   19.3638 C   0  0  0  0  0  0
   38.9760   -5.7926   20.6164 C   0  0  0  0  0  0
   37.8233   -6.2302   21.5369 C   0  0  0  0  0  0
   36.0541    2.5249   28.8954 H   0  0  0  0  0  0
   23.7656    0.2918   26.5128 H   0  0  0  0  0  0
  1  2  2  0  0  0
  1 16  1  0  0  0
  2  3  1  0  0  0
  3  4  1  0  0  0
  3  5  2  0  0  0
  4 35  1  0  0  0
  5  6  1  0  0  0
  6  7  1  0  0  0
  6 16  2  0  0  0
  7  8  1  0  0  0
  8  9  1  0  0  0
  8 17  2  0  0  0
  9 10  2  0  0  0
  9 15  1  0  0  0
 10 11  1  0  0  0
 11 12  2  0  0  0
 12 13  1  0  0  0
 12 14  1  0  0  0
 13 36  1  0  0  0
 14 15  2  0  0  0
 16 17  1  0  0  0
 17 18  1  0  0  0
 18 19  2  0  0  0
 18 20  1  0  0  0
 20 21  2  0  0  0
 20 25  1  0  0  0
 21 22  1  0  0  0
 22 23  2  0  0  0
 23 24  1  0  0  0
 23 26  1  0  0  0
 24 25  2  0  0  0
 26 27  1  0  0  0
 27 28  1  0  0  0
 28 29  1  0  0  0
 29 30  1  0  0  0
 29 34  1  0  0  0
 30 31  1  0  0  0
 31 32  1  0  0  0
 32 33  1  0  0  0
 33 34  1  0  0  0
M  END
>  <CHROM.0>
-154.10181007,-60.56480275,174.52617870

>  <CHROM.1>
-87.38973913,-131.18904780,151.98913006,-44.72318940,105.18449621,-103.31246718
157.48706671,172.51449403,-48.66007174,32.35185400,-1.65261046,25.65076156
-2.41010674,-0.14606587,-2.48194104

>  <FORMUL>
      RAL    C28 H27 N1 O4 S1

>  <HET>
 RAL  A 600      34

>  <HETNAM>
     RAL RALOXIFENE

>  <Name>
RAL.pdb

>  <RI>
0

>  <Rbt.Current_Directory>
/home/malgorzata/Desktop/rDOCK_IFD/test6

>  <Rbt.Executable>
rbdock ($Id: //depot/dev/client3/rdock/2013.1/src/exe/rbdock.cxx#4 $)

>  <Rbt.Library>
libRbt.so (2013.1, Build901 2013/11/27)

>  <Rbt.Parameter_File>
/home/malgorzata/Desktop/rDock_2013.1_src/data/scripts/soft_docking.prm

>  <Rbt.Receptor>
cavity.prm

>  <SCORE>
-31.9732

>  <SCORE.INTER>
-34.9147

>  <SCORE.INTER.CONST>
1

>  <SCORE.INTER.POLAR>
-2.22525

>  <SCORE.INTER.REPUL>
0.323273

>  <SCORE.INTER.ROT>
7

>  <SCORE.INTER.VDW>
-41.3652

>  <SCORE.INTER.norm>
-1.0269

>  <SCORE.INTRA>
3.5518

>  <SCORE.INTRA.DIHEDRAL>
19.717

>  <SCORE.INTRA.DIHEDRAL.0>
18.358

>  <SCORE.INTRA.POLAR>
0

>  <SCORE.INTRA.POLAR.0>
0

>  <SCORE.INTRA.REPUL>
0

>  <SCORE.INTRA.REPUL.0>
0

>  <SCORE.INTRA.VDW>
-0.391604

>  <SCORE.INTRA.VDW.0>
-1.94569

>  <SCORE.INTRA.norm>
0.104465

>  <SCORE.RESTR>
0

>  <SCORE.RESTR.CAVITY>
0

>  <SCORE.RESTR.norm>
0

>  <SCORE.SYSTEM>
-0.610344

>  <SCORE.SYSTEM.CONST>
0

>  <SCORE.SYSTEM.DIHEDRAL>
0.805133

>  <SCORE.SYSTEM.VDW>
-1.01291

>  <SCORE.SYSTEM.norm>
-0.0179513

>  <SCORE.heavy>
34

>  <SCORE.norm>
-0.940388

$$$$
RAL.pdb
  rDOCK(R)          3D
libRbt.so/2013.1/901 2013/11/27
 36 40  0  0  0  0  0  0  0  0999 V2000
   31.0316   -4.5134   19.8293 C   0  0  0  0  0  0
   29.8646   -4.7743   19.1586 C   0  0  0  0  0  0
   29.4621   -4.0445   18.0750 C   0  0  0  0  0  0
   28.2884   -4.4263   17.4746 O   0  0  0  0  0  0
   30.2723   -3.0009   17.6130 C   0  0  0  0  0  0
   31.4568   -2.7651   18.2664 C   0  0  0  0  0  0
   32.5901   -1.5926   17.9980 S   0  0  0  0  0  0
   33.6752   -2.0282   19.2156 C   0  0  0  0  0  0
   34.9084   -1.2556   19.5383 C   0  0  0  0  0  0
   34.9519    0.0264   19.0259 C   0  0  0  0  0  0
   36.0293    0.8313   19.3592 C   0  0  0  0  0  0
   37.0611    0.3640   20.1492 C   0  0  0  0  0  0
   38.1019    1.2495   20.4347 O   0  0  0  0  0  0
   36.9934   -0.9000   20.6973 C   0  0  0  0  0  0
   35.9008   -1.6941   20.3711 C   0  0  0  0  0  0
   31.8431   -3.5308   19.4034 C   0  0  0  0  0  0
   33.1090   -3.0828   19.9624 C   0  0  0  0  0  0
   33.6648   -3.6556   21.0905 C   0  0  0  0  0  0
   34.5362   -4.5248   20.9624 O   0  0  0  0  0  0
   33.2561   -3.2894   22.4510 C   0  0  0  0  0  0
   33.9719   -3.7342   23.5444 C   0  0  0  0  0  0
   33.6055   -3.4200   24.8387 C   0  0  0  0  0  0
   32.4593   -2.6536   25.0428 C   0  0  0  0  0  0
   31.7388   -2.1956   23.9542 C   0  0  0  0  0  0
   32.1442   -2.5030   22.6662 C   0  0  0  0  0  0
   31.9027   -2.2336   26.2146 O   0  0  0  0  0  0
   32.4666   -1.0723   26.8047 C   0  0  0  0  0  0
   31.4799   -0.4302   27.7432 C   0  0  0  0  0  0
   30.1968    0.1773   27.4462 N   0  0  0  0  0  0
   29.6940    0.8463   28.6630 C   0  0  0  0  0  0
   28.4045    1.6611   28.4370 C   0  0  0  0  0  0
   27.3221    0.6633   27.9943 C   0  0  0  0  0  0
   27.8380    0.1367   26.6198 C   0  0  0  0  0  0
   29.1181   -0.6696   26.9006 C   0  0  0  0  0  0
   27.6502   -3.7813   17.2410 H   0  0  0  0  0  0
   37.9534    1.9795   21.0031 H   0  0  0  0  0  0
  1  2  2  0  0  0
  1 16  1  0  0  0
  2  3  1  0  0  0
  3  4  1  0  0  0
  3  5  2  0  0  0
  4 35  1  0  0  0
  5  6  1  0  0  0
  6  7  1  0  0  0
  6 16  2  0  0  0
  7  8  1  0  0  0
  8  9  1  0  0  0
  8 17  2  0  0  0
  9 10  2  0  0  0
  9 15  1  0  0  0
 10 11  1  0  0  0
 11 12  2  0  0  0
 12 13  1  0  0  0
 12 14  1  0  0  0
 13 36  1  0  0  0
 14 15  2  0  0  0
 16 17  1  0  0  0
 17 18  1  0  0  0
 18 19  2  0  0  0
 18 20  1  0  0  0
 20 21  2  0  0  0
 20 25  1  0  0  0
 21 22  1  0  0  0
 22 23  2  0  0  0
 23 24  1  0  0  0
 23 26  1  0  0  0
 24 25  2  0  0  0
 26 27  1  0  0  0
 27 28  1  0  0  0
 28 29  1  0  0  0
 29 30  1  0  0  0
 29 34  1  0  0  0
 30 31  1  0  0  0
 31 32  1  0  0  0
 32 33  1  0  0  0
 33 34  1  0  0  0
M  END
>  <CHROM.0>
100.36709016,-60.56480275,-29.61673760

>  <CHROM.1>
134.34737535,16.06935190,69.87327008,-82.16015430,-170.16825550,81.88319392
158.27714632,-64.49410699,-171.60439795,32.30468380,-1.77772889,22.21240377
1.14233138,-0.32536395,-1.94945514

>  <FORMUL>
      RAL    C28 H27 N1 O4 S1

>  <HET>
 RAL  A 600      34

>  <HETNAM>
     RAL RALOXIFENE

>  <Name>
RAL.pdb

>  <RI>
0

>  <Rbt.Current_Directory>
/home/malgorzata/Desktop/rDOCK_IFD/test6

>  <Rbt.Executable>
rbdock ($Id: //depot/dev/client3/rdock/2013.1/src/exe/rbdock.cxx#4 $)

>  <Rbt.Library>
libRbt.so (2013.1, Build901 2013/11/27)

>  <Rbt.Parameter_File>
/home/malgorzata/Desktop/rDock_2013.1_src/data/scripts/soft_docking.prm

>  <Rbt.Receptor>
cavity.prm

>  <SCORE>
-31.7286

>  <SCORE.INTER>
-32.3696

>  <SCORE.INTER.CONST>
1

>  <SCORE.INTER.POLAR>
-2.08564

>  <SCORE.INTER.REPUL>
0

>  <SCORE.INTER.ROT>
7

>  <SCORE.INTER.VDW>
-37.6784

>  <SCORE.INTER.norm>
-0.952046

>  <SCORE.INTRA>
0.325329

>  <SCORE.INTRA.DIHEDRAL>
8.48162

>  <SCORE.INTRA.DIHEDRAL.0>
18.358

>  <SCORE.INTRA.POLAR>
0

>  <SCORE.INTRA.POLAR.0>
0

>  <SCORE.INTRA.REPUL>
0

>  <SCORE.INTRA.REPUL.0>
0

>  <SCORE.INTRA.VDW>
-1.37099

>  <SCORE.INTRA.VDW.0>
-1.94569

>  <SCORE.INTRA.norm>
0.0095685

>  <SCORE.RESTR>
0.913536

>  <SCORE.RESTR.CAVITY>
0.913536

>  <SCORE.RESTR.norm>
0.0268687

>  <SCORE.SYSTEM>
-0.59796

>  <SCORE.SYSTEM.CONST>
0

>  <SCORE.SYSTEM.DIHEDRAL>
0.801946

>  <SCORE.SYSTEM.VDW>
-0.998933

>  <SCORE.SYSTEM.norm>
-0.0175871

>  <SCORE.heavy>
34

>  <SCORE.norm>
-0.933196

$$$$
RAL.pdb
  rDOCK(R)          3D
libRbt.so/2013.1/901 2013/11/27
 36 40  0  0  0  0  0  0  0  0999 V2000
   26.7737   -2.3227   26.5404 C   0  0  0  0  0  0
   25.4441   -2.0327   26.7070 C   0  0  0  0  0  0
   24.9982   -0.7726   26.9937 C   0  0  0  0  0  0
   23.6402   -0.6087   27.1066 O   0  0  0  0  0  0
   25.9230    0.2720   27.1059 C   0  0  0  0  0  0
   27.2503   -0.0161   26.9043 C   0  0  0  0  0  0
   28.5693    0.9734   27.0146 S   0  0  0  0  0  0
   29.7531   -0.1645   26.6229 C   0  0  0  0  0  0
   31.2153    0.1248   26.6411 C   0  0  0  0  0  0
   31.8330   -0.0370   27.8660 C   0  0  0  0  0  0
   33.2065    0.1304   27.9367 C   0  0  0  0  0  0
   33.9470    0.4898   26.8278 C   0  0  0  0  0  0
   35.3257    0.6313   26.9956 O   0  0  0  0  0  0
   33.3354    0.6057   25.5969 C   0  0  0  0  0  0
   31.9600    0.4195   25.5325 C   0  0  0  0  0  0
   27.6882   -1.3418   26.6233 C   0  0  0  0  0  0
   29.1342   -1.4254   26.4899 C   0  0  0  0  0  0
   29.7884   -2.6190   26.2513 C   0  0  0  0  0  0
   29.5447   -3.5977   26.9682 O   0  0  0  0  0  0
   30.7823   -2.7808   25.1845 C   0  0  0  0  0  0
   31.6354   -3.8660   25.1762 C   0  0  0  0  0  0
   32.5920   -4.0403   24.1949 C   0  0  0  0  0  0
   32.7148   -3.0717   23.2003 C   0  0  0  0  0  0
   31.8599   -1.9840   23.1939 C   0  0  0  0  0  0
   30.8919   -1.8481   24.1748 C   0  0  0  0  0  0
   33.5819   -3.0235   22.1489 O   0  0  0  0  0  0
   34.7912   -2.3095   22.3559 C   0  0  0  0  0  0
   35.9092   -2.9325   21.5633 C   0  0  0  0  0  0
   37.0021   -2.2880   20.8606 N   0  0  0  0  0  0
   36.4485   -1.2439   19.9748 C   0  0  0  0  0  0
   37.5233   -0.3812   19.2831 C   0  0  0  0  0  0
   38.3490   -1.3285   18.3977 C   0  0  0  0  0  0
   39.0427   -2.2839   19.4169 C   0  0  0  0  0  0
   37.9317   -3.1217   20.0736 C   0  0  0  0  0  0
   23.0657   -1.0212   26.4920 H   0  0  0  0  0  0
   35.8325    1.0820   26.3490 H   0  0  0  0  0  0
  1  2  2  0  0  0
  1 16  1  0  0  0
  2  3  1  0  0  0
  3  4  1  0  0  0
  3  5  2  0  0  0
  4 35  1  0  0  0
  5  6  1  0  0  0
  6  7  1  0  0  0
  6 16  2  0  0  0
  7  8  1  0  0  0
  8  9  1  0  0  0
  8 17  2  0  0  0
  9 10  2  0  0  0
  9 15  1  0  0  0
 10 11  1  0  0  0
 11 12  2  0  0  0
 12 13  1  0  0  0
 12 14  1  0  0  0
 13 36  1  0  0  0
 14 15  2  0  0  0
 16 17  1  0  0  0
 17 18  1  0  0  0
 18 19  2  0  0  0
 18 20  1  0  0  0
 20 21  2  0  0  0
 20 25  1  0  0  0
 21 22  1  0  0  0
 22 23  2  0  0  0
 23 24  1  0  0  0
 23 26  1  0  0  0
 24 25  2  0  0  0
 26 27  1  0  0  0
 27 28  1  0  0  0
 28 29  1  0  0  0
 29 30  1  0  0  0
 29 34  1  0  0  0
 30 31  1  0  0  0
 31 32  1  0  0  0
 32 33  1  0  0  0
 33 34  1  0  0  0
M  END
>  <CHROM.0>
-63.40157664,-60.56480275,63.71880743

>  <CHROM.1>
-42.68625667,86.21137061,-164.03632034,129.78909330,164.39340751,-93.18330279
147.59557526,142.27665333,-51.38266443,31.74015059,-1.32522730,24.66949691
2.63835937,0.30217420,0.89476163

>  <FORMUL>
      RAL    C28 H27 N1 O4 S1

>  <HET>
 RAL  A 600      34

>  <HETNAM>
     RAL RALOXIFENE

>  <Name>
RAL.pdb

>  <RI>
0

>  <Rbt.Current_Directory>
/home/malgorzata/Desktop/rDOCK_IFD/test6

>  <Rbt.Executable>
rbdock ($Id: //depot/dev/client3/rdock/2013.1/src/exe/rbdock.cxx#4 $)

>  <Rbt.Library>
libRbt.so (2013.1, Build901 2013/11/27)

>  <Rbt.Parameter_File>
/home/malgorzata/Desktop/rDock_2013.1_src/data/scripts/soft_docking.prm

>  <Rbt.Receptor>
cavity.prm

>  <SCORE>
-33.3217

>  <SCORE.INTER>
-35.3401

>  <SCORE.INTER.CONST>
1

>  <SCORE.INTER.POLAR>
-1.93855

>  <SCORE.INTER.REPUL>
0.102392

>  <SCORE.INTER.ROT>
7

>  <SCORE.INTER.VDW>
-41.661

>  <SCORE.INTER.norm>
-1.03942

>  <SCORE.INTRA>
2.74563

>  <SCORE.INTRA.DIHEDRAL>
17.4077

>  <SCORE.INTRA.DIHEDRAL.0>
18.358

>  <SCORE.INTRA.POLAR>
0

>  <SCORE.INTRA.POLAR.0>
0

>  <SCORE.INTRA.REPUL>
0

>  <SCORE.INTRA.REPUL.0>
0

>  <SCORE.INTRA.VDW>
-0.735901

>  <SCORE.INTRA.VDW.0>
-1.94569

>  <SCORE.INTRA.norm>
0.0807539

>  <SCORE.RESTR>
0.228599

>  <SCORE.RESTR.CAVITY>
0.228599

>  <SCORE.RESTR.norm>
0.00672349

>  <SCORE.SYSTEM>
-0.955797

>  <SCORE.SYSTEM.CONST>
0

>  <SCORE.SYSTEM.DIHEDRAL>
0.803845

>  <SCORE.SYSTEM.VDW>
-1.35772

>  <SCORE.SYSTEM.norm>
-0.0281117

>  <SCORE.heavy>
34

>  <SCORE.norm>
-0.98005

$$$$
RAL.pdb
  rDOCK(R)          3D
libRbt.so/2013.1/901 2013/11/27
 36 40  0  0  0  0  0  0  0  0999 V2000
   35.0577   -6.4367   22.2938 C   0  0  0  0  0  0
   36.2964   -7.0117   22.1718 C   0  0  0  0  0  0
   37.0395   -6.9180   21.0282 C   0  0  0  0  0  0
   38.2764   -7.5127   21.0449 O   0  0  0  0  0  0
   36.5349   -6.1955   19.9410 C   0  0  0  0  0  0
   35.3091   -5.5923   20.0794 C   0  0  0  0  0  0
   34.4338   -4.7251   18.9779 S   0  0  0  0  0  0
   33.1032   -4.3742   19.9555 C   0  0  0  0  0  0
   31.8889   -3.6576   19.4720 C   0  0  0  0  0  0
   32.1306   -2.5913   18.6278 C   0  0  0  0  0  0
   31.0452   -1.9343   18.0714 C   0  0  0  0  0  0
   29.7483   -2.2986   18.3757 C   0  0  0  0  0  0
   28.7198   -1.5804   17.7631 O   0  0  0  0  0  0
   29.5093   -3.3920   19.1819 C   0  0  0  0  0  0
   30.6044   -4.0553   19.7220 C   0  0  0  0  0  0
   34.5491   -5.7206   21.2769 C   0  0  0  0  0  0
   33.2669   -5.0397   21.1888 C   0  0  0  0  0  0
   32.3461   -5.0579   22.2190 C   0  0  0  0  0  0
   31.4704   -5.9320   22.2341 O   0  0  0  0  0  0
   32.3467   -4.0690   23.3027 C   0  0  0  0  0  0
   33.2001   -4.2052   24.3790 C   0  0  0  0  0  0
   33.2155   -3.3004   25.4227 C   0  0  0  0  0  0
   32.3185   -2.2339   25.3974 C   0  0  0  0  0  0
   31.4641   -2.0828   24.3198 C   0  0  0  0  0  0
   31.4888   -2.9899   23.2737 C   0  0  0  0  0  0
   32.1440   -1.2347   26.3088 O   0  0  0  0  0  0
   33.3217   -0.6725   26.8673 C   0  0  0  0  0  0
   32.9960    0.0736   28.1337 C   0  0  0  0  0  0
   31.7717    0.7575   28.5035 N   0  0  0  0  0  0
   30.8941   -0.1909   29.2187 C   0  0  0  0  0  0
   29.6207    0.4566   29.7991 C   0  0  0  0  0  0
   28.8168    0.9989   28.6063 C   0  0  0  0  0  0
   29.7309    2.1161   28.0156 C   0  0  0  0  0  0
   30.9801    1.4196   27.4483 C   0  0  0  0  0  0
   38.8813   -7.3168   21.7331 H   0  0  0  0  0  0
   28.6863   -0.6476   17.8453 H   0  0  0  0  0  0
  1  2  2  0  0  0
  1 16  1  0  0  0
  2  3  1  0  0  0
  3  4  1  0  0  0
  3  5  2  0  0  0
  4 35  1  0  0  0
  5  6  1  0  0  0
  6  7  1  0  0  0
  6 16  2  0  0  0
  7  8  1  0  0  0
  8  9  1  0  0  0
  8 17  2  0  0  0
  9 10  2  0  0  0
  9 15  1  0  0  0
 10 11  1  0  0  0
 11 12  2  0  0  0
 12 13  1  0  0  0
 12 14  1  0  0  0
 13 36  1  0  0  0
 14 15  2  0  0  0
 16 17  1  0  0  0
 17 18  1  0  0  0
 18 19  2  0  0  0
 18 20  1  0  0  0
 20 21  2  0  0  0
 20 25  1  0  0  0
 21 22  1  0  0  0
 22 23  2  0  0  0
 23 24  1  0  0  0
 23 26  1  0  0  0
 24 25  2  0  0  0
 26 27  1  0  0  0
 27 28  1  0  0  0
 28 29  1  0  0  0
 29 30  1  0  0  0
 29 34  1  0  0  0
 30 31  1  0  0  0
 31 32  1  0  0  0
 32 33  1  0  0  0
 33 34  1  0  0  0
M  END
>  <CHROM.0>
82.52701582,-60.56480275,-15.72621670

>  <CHROM.1>
-52.17443355,-41.01721577,-55.15499680,88.17400009,-81.62143791,41.47766705
-161.98671462,-29.59239312,91.12458732,32.56469525,-3.09453707,22.94055120
-1.16230927,-0.64548454,1.22229260

>  <FORMUL>
      RAL    C28 H27 N1 O4 S1

>  <HET>
 RAL  A 600      34

>  <HETNAM>
     RAL RALOXIFENE

>  <Name>
RAL.pdb

>  <RI>
0

>  <Rbt.Current_Directory>
/home/malgorzata/Desktop/rDOCK_IFD/test6

>  <Rbt.Executable>
rbdock ($Id: //depot/dev/client3/rdock/2013.1/src/exe/rbdock.cxx#4 $)

>  <Rbt.Library>
libRbt.so (2013.1, Build901 2013/11/27)

>  <Rbt.Parameter_File>
/home/malgorzata/Desktop/rDock_2013.1_src/data/scripts/soft_docking.prm

>  <Rbt.Receptor>
cavity.prm

>  <SCORE>
-22.7767

>  <SCORE.INTER>
-25.1416

>  <SCORE.INTER.CONST>
1

>  <SCORE.INTER.POLAR>
0

>  <SCORE.INTER.REPUL>
0

>  <SCORE.INTER.ROT>
7

>  <SCORE.INTER.VDW>
-37.5416

>  <SCORE.INTER.norm>
-0.739457

>  <SCORE.INTRA>
2.82721

>  <SCORE.INTRA.DIHEDRAL>
24.2435

>  <SCORE.INTRA.DIHEDRAL.0>
18.358

>  <SCORE.INTRA.POLAR>
0

>  <SCORE.INTRA.POLAR.0>
0

>  <SCORE.INTRA.REPUL>
0

>  <SCORE.INTRA.REPUL.0>
0

>  <SCORE.INTRA.VDW>
-2.02149

>  <SCORE.INTRA.VDW.0>
-1.94569

>  <SCORE.INTRA.norm>
0.0831534

>  <SCORE.RESTR>
0.135123

>  <SCORE.RESTR.CAVITY>
0.135123

>  <SCORE.RESTR.norm>
0.00397421

>  <SCORE.SYSTEM>
-0.597508

>  <SCORE.SYSTEM.CONST>
0

>  <SCORE.SYSTEM.DIHEDRAL>
0.802625

>  <SCORE.SYSTEM.VDW>
-0.99882

>  <SCORE.SYSTEM.norm>
-0.0175738

>  <SCORE.heavy>
34

>  <SCORE.norm>
-0.669904

$$$$
