RAL.pdb
  rDOCK(R)          3D
libRbt.so/2013.1/901 2013/11/27
 36 40  0  0  0  0  0  0  0  0999 V2000
   36.1007   -6.2488   21.7486 C   0  0  0  0  0  0
   37.3813   -6.7122   21.9080 C   0  0  0  0  0  0
   38.4181   -6.2876   21.1247 C   0  0  0  0  0  0
   39.6574   -6.8063   21.4059 O   0  0  0  0  0  0
   38.1788   -5.3311   20.1314 C   0  0  0  0  0  0
   36.9019   -4.8442   19.9978 C   0  0  0  0  0  0
   36.2984   -3.7623   18.9040 S   0  0  0  0  0  0
   34.7000   -3.7429   19.4465 C   0  0  0  0  0  0
   33.6082   -2.9837   18.7731 C   0  0  0  0  0  0
   32.3940   -3.6382   18.6988 C   0  0  0  0  0  0
   31.3122   -2.9578   18.1638 C   0  0  0  0  0  0
   31.4387   -1.6722   17.6758 C   0  0  0  0  0  0
   30.2920   -1.0664   17.1592 O   0  0  0  0  0  0
   32.6399   -1.0042   17.7929 C   0  0  0  0  0  0
   33.7151   -1.6888   18.3462 C   0  0  0  0  0  0
   35.8372   -5.3171   20.8170 C   0  0  0  0  0  0
   34.5657   -4.6989   20.4754 C   0  0  0  0  0  0
   33.3859   -5.0295   21.1144 C   0  0  0  0  0  0
   32.7580   -6.0309   20.7480 O   0  0  0  0  0  0
   32.8258   -4.2321   22.2110 C   0  0  0  0  0  0
   33.0106   -4.6142   23.5245 C   0  0  0  0  0  0
   32.4842   -3.8943   24.5795 C   0  0  0  0  0  0
   31.7184   -2.7632   24.3021 C   0  0  0  0  0  0
   31.5333   -2.3663   22.9898 C   0  0  0  0  0  0
   32.0953   -3.0916   21.9526 C   0  0  0  0  0  0
   31.0957   -1.9127   25.1670 O   0  0  0  0  0  0
   31.3052   -2.1493   26.5509 C   0  0  0  0  0  0
   30.2297   -1.4807   27.3650 C   0  0  0  0  0  0
   29.0352   -2.0570   27.9521 N   0  0  0  0  0  0
   27.8674   -1.6637   27.1380 C   0  0  0  0  0  0
   26.5508   -2.3388   27.5722 C   0  0  0  0  0  0
   26.2700   -1.8769   29.0113 C   0  0  0  0  0  0
   27.4476   -2.4827   29.8354 C   0  0  0  0  0  0
   28.7318   -1.7751   29.3688 C   0  0  0  0  0  0
   40.0547   -7.4165   20.8163 H   0  0  0  0  0  0
   30.3636   -0.2767   16.6599 H   0  0  0  0  0  0
  1  2  2  0  0  0
  1 16  1  0  0  0
  2  3  1  0  0  0
  3  4  1  0  0  0
  3  5  2  0  0  0
  4 35  1  0  0  0
  5  6  1  0  0  0
  6  7  1  0  0  0
  6 16  2  0  0  0
  7  8  1  0  0  0
  8  9  1  0  0  0
  8 17  2  0  0  0
  9 10  2  0  0  0
  9 15  1  0  0  0
 10 11  1  0  0  0
 11 12  2  0  0  0
 12 13  1  0  0  0
 12 14  1  0  0  0
 13 36  1  0  0  0
 14 15  2  0  0  0
 16 17  1  0  0  0
 17 18  1  0  0  0
 18 19  2  0  0  0
 18 20  1  0  0  0
 20 21  2  0  0  0
 20 25  1  0  0  0
 21 22  1  0  0  0
 22 23  2  0  0  0
 23 24  1  0  0  0
 23 26  1  0  0  0
 24 25  2  0  0  0
 26 27  1  0  0  0
 27 28  1  0  0  0
 28 29  1  0  0  0
 29 30  1  0  0  0
 29 34  1  0  0  0
 30 31  1  0  0  0
 31 32  1  0  0  0
 32 33  1  0  0  0
 33 34  1  0  0  0
M  END
>  <CHROM.0>
-58.07143462,-60.56480275,104.11278184

>  <CHROM.1>
109.24499741,139.57223572,-167.22507264,97.79480999,-99.21594681,3.98388882
-160.54474481,99.48801978,-104.33148412,32.76635624,-3.47046656,22.41153621
-0.71677882,-0.51365368,1.78111731

>  <FORMUL>
      RAL    C28 H27 N1 O4 S1

>  <HET>
 RAL  A 600      34

>  <HETNAM>
     RAL RALOXIFENE

>  <Name>
RAL.pdb

>  <RI>
0

>  <Rbt.Current_Directory>
/home/malgorzata/Desktop/rDOCK_IFD/Wyniki/6a_estrogen_receptor

>  <Rbt.Executable>
rbdock ($Id: //depot/dev/client3/rdock/2013.1/src/exe/rbdock.cxx#4 $)

>  <Rbt.Library>
libRbt.so (2013.1, Build901 2013/11/27)

>  <Rbt.Parameter_File>
/home/malgorzata/Desktop/rDock_2013.1_src/data/scripts/soft_docking.prm

>  <Rbt.Receptor>
cavity.prm

>  <SCORE>
-22.0924

>  <SCORE.INTER>
-24.3823

>  <SCORE.INTER.CONST>
1

>  <SCORE.INTER.POLAR>
0

>  <SCORE.INTER.REPUL>
0

>  <SCORE.INTER.ROT>
7

>  <SCORE.INTER.VDW>
-36.7823

>  <SCORE.INTER.norm>
-0.717125

>  <SCORE.INTRA>
3.06147

>  <SCORE.INTRA.DIHEDRAL>
22.8064

>  <SCORE.INTRA.DIHEDRAL.0>
18.358

>  <SCORE.INTRA.POLAR>
0

>  <SCORE.INTRA.POLAR.0>
0

>  <SCORE.INTRA.REPUL>
0

>  <SCORE.INTRA.REPUL.0>
0

>  <SCORE.INTRA.VDW>
-1.49981

>  <SCORE.INTRA.VDW.0>
-1.94569

>  <SCORE.INTRA.norm>
0.0900431

>  <SCORE.RESTR>
0

>  <SCORE.RESTR.CAVITY>
0

>  <SCORE.RESTR.norm>
0

>  <SCORE.SYSTEM>
-0.771647

>  <SCORE.SYSTEM.CONST>
0

>  <SCORE.SYSTEM.DIHEDRAL>
0.802537

>  <SCORE.SYSTEM.POLAR>
-0.00023962

>  <SCORE.SYSTEM.VDW>
-1.1721

>  <SCORE.SYSTEM.norm>
-0.0226955

>  <SCORE.heavy>
34

>  <SCORE.norm>
-0.649777

$$$$
RAL.pdb
  rDOCK(R)          3D
libRbt.so/2013.1/901 2013/11/27
 36 40  0  0  0  0  0  0  0  0999 V2000
   26.1913   -2.2241   26.4570 C   0  0  0  0  0  0
   24.9342   -1.7246   26.2334 C   0  0  0  0  0  0
   24.6038   -0.4244   26.4964 C   0  0  0  0  0  0
   23.3194   -0.0415   26.2004 O   0  0  0  0  0  0
   25.5819    0.4431   26.9959 C   0  0  0  0  0  0
   26.8484   -0.0523   27.1859 C   0  0  0  0  0  0
   28.1884    0.6951   27.7998 S   0  0  0  0  0  0
   29.2608   -0.6029   27.6782 C   0  0  0  0  0  0
   30.6648   -0.5640   28.1771 C   0  0  0  0  0  0
   31.4605    0.4195   27.6226 C   0  0  0  0  0  0
   32.7514    0.5692   28.1031 C   0  0  0  0  0  0
   33.2571   -0.2627   29.0825 C   0  0  0  0  0  0
   34.5674   -0.0325   29.5058 O   0  0  0  0  0  0
   32.4467   -1.2136   29.6670 C   0  0  0  0  0  0
   31.1482   -1.3453   29.1903 C   0  0  0  0  0  0
   27.1602   -1.4160   26.9191 C   0  0  0  0  0  0
   28.5449   -1.7335   27.2313 C   0  0  0  0  0  0
   29.0643   -3.0057   27.0850 C   0  0  0  0  0  0
   28.5672   -3.9408   27.7250 O   0  0  0  0  0  0
   30.2014   -3.3034   26.2072 C   0  0  0  0  0  0
   31.4390   -3.6077   26.7376 C   0  0  0  0  0  0
   32.5334   -3.8783   25.9392 C   0  0  0  0  0  0
   32.3850   -3.8119   24.5550 C   0  0  0  0  0  0
   31.1474   -3.5158   24.0121 C   0  0  0  0  0  0
   30.0605   -3.2754   24.8358 C   0  0  0  0  0  0
   33.3134   -4.0245   23.5791 O   0  0  0  0  0  0
   34.1436   -2.9235   23.2424 C   0  0  0  0  0  0
   35.1243   -3.3161   22.1697 C   0  0  0  0  0  0
   35.8970   -2.4686   21.2819 N   0  0  0  0  0  0
   34.9763   -1.8031   20.3381 C   0  0  0  0  0  0
   35.6600   -0.7558   19.4363 C   0  0  0  0  0  0
   36.6996   -1.5100   18.5916 C   0  0  0  0  0  0
   37.7307   -2.0274   19.6413 C   0  0  0  0  0  0
   37.0025   -3.0684   20.5095 C   0  0  0  0  0  0
   23.1593    0.7885   25.7960 H   0  0  0  0  0  0
   34.8037   -0.1813   30.4003 H   0  0  0  0  0  0
  1  2  2  0  0  0
  1 16  1  0  0  0
  2  3  1  0  0  0
  3  4  1  0  0  0
  3  5  2  0  0  0
  4 35  1  0  0  0
  5  6  1  0  0  0
  6  7  1  0  0  0
  6 16  2  0  0  0
  7  8  1  0  0  0
  8  9  1  0  0  0
  8 17  2  0  0  0
  9 10  2  0  0  0
  9 15  1  0  0  0
 10 11  1  0  0  0
 11 12  2  0  0  0
 12 13  1  0  0  0
 12 14  1  0  0  0
 13 36  1  0  0  0
 14 15  2  0  0  0
 16 17  1  0  0  0
 17 18  1  0  0  0
 18 19  2  0  0  0
 18 20  1  0  0  0
 20 21  2  0  0  0
 20 25  1  0  0  0
 21 22  1  0  0  0
 22 23  2  0  0  0
 23 24  1  0  0  0
 23 26  1  0  0  0
 24 25  2  0  0  0
 26 27  1  0  0  0
 27 28  1  0  0  0
 28 29  1  0  0  0
 29 30  1  0  0  0
 29 34  1  0  0  0
 30 31  1  0  0  0
 31 32  1  0  0  0
 32 33  1  0  0  0
 33 34  1  0  0  0
M  END
>  <CHROM.0>
-60.95870227,-60.56480275,-45.08704305

>  <CHROM.1>
-138.10618807,-58.86737097,145.67738029,120.58952996,107.97486283,-84.06525734
179.21889756,161.69833947,-68.30246295,31.05238507,-1.66943185,25.50384448
2.50508588,-0.01964318,1.35146224

>  <FORMUL>
      RAL    C28 H27 N1 O4 S1

>  <HET>
 RAL  A 600      34

>  <HETNAM>
     RAL RALOXIFENE

>  <Name>
RAL.pdb

>  <RI>
0

>  <Rbt.Current_Directory>
/home/malgorzata/Desktop/rDOCK_IFD/Wyniki/6a_estrogen_receptor

>  <Rbt.Executable>
rbdock ($Id: //depot/dev/client3/rdock/2013.1/src/exe/rbdock.cxx#4 $)

>  <Rbt.Library>
libRbt.so (2013.1, Build901 2013/11/27)

>  <Rbt.Parameter_File>
/home/malgorzata/Desktop/rDock_2013.1_src/data/scripts/soft_docking.prm

>  <Rbt.Receptor>
cavity.prm

>  <SCORE>
-34.5066

>  <SCORE.INTER>
-35.2267

>  <SCORE.INTER.CONST>
1

>  <SCORE.INTER.POLAR>
-1.2615

>  <SCORE.INTER.REPUL>
0

>  <SCORE.INTER.ROT>
7

>  <SCORE.INTER.VDW>
-43.3376

>  <SCORE.INTER.norm>
-1.03608

>  <SCORE.INTRA>
1.46857

>  <SCORE.INTRA.DIHEDRAL>
19.8956

>  <SCORE.INTRA.DIHEDRAL.0>
18.358

>  <SCORE.INTRA.POLAR>
0

>  <SCORE.INTRA.POLAR.0>
0

>  <SCORE.INTRA.REPUL>
0

>  <SCORE.INTRA.REPUL.0>
0

>  <SCORE.INTRA.VDW>
-2.51055

>  <SCORE.INTRA.VDW.0>
-1.94569

>  <SCORE.INTRA.norm>
0.0431932

>  <SCORE.RESTR>
0

>  <SCORE.RESTR.CAVITY>
0

>  <SCORE.RESTR.norm>
0

>  <SCORE.SYSTEM>
-0.748438

>  <SCORE.SYSTEM.CONST>
0

>  <SCORE.SYSTEM.DIHEDRAL>
0.80259

>  <SCORE.SYSTEM.VDW>
-1.14973

>  <SCORE.SYSTEM.norm>
-0.0220129

>  <SCORE.heavy>
34

>  <SCORE.norm>
-1.0149

$$$$
RAL.pdb
  rDOCK(R)          3D
libRbt.so/2013.1/901 2013/11/27
 36 40  0  0  0  0  0  0  0  0999 V2000
   32.7404   -1.2238   27.6765 C   0  0  0  0  0  0
   33.8463   -0.5488   28.1250 C   0  0  0  0  0  0
   33.7579    0.6276   28.8157 C   0  0  0  0  0  0
   34.9386    1.1879   29.2351 O   0  0  0  0  0  0
   32.4959    1.1634   29.0968 C   0  0  0  0  0  0
   31.3901    0.4666   28.6759 C   0  0  0  0  0  0
   29.7893    0.8557   28.8081 S   0  0  0  0  0  0
   29.1498   -0.5106   28.0505 C   0  0  0  0  0  0
   27.6963   -0.7012   27.7805 C   0  0  0  0  0  0
   27.0354    0.4117   27.2981 C   0  0  0  0  0  0
   25.7024    0.2821   26.9432 C   0  0  0  0  0  0
   25.0273   -0.9123   27.1004 C   0  0  0  0  0  0
   23.6871   -0.9476   26.7112 O   0  0  0  0  0  0
   25.7006   -2.0337   27.5386 C   0  0  0  0  0  0
   27.0416   -1.8982   27.8762 C   0  0  0  0  0  0
   31.5123   -0.7485   27.9434 C   0  0  0  0  0  0
   30.2181   -1.2919   27.5619 C   0  0  0  0  0  0
   30.0909   -2.4474   26.8148 C   0  0  0  0  0  0
   29.3885   -3.3719   27.2430 O   0  0  0  0  0  0
   30.7689   -2.6404   25.5283 C   0  0  0  0  0  0
   30.3735   -3.6452   24.6683 C   0  0  0  0  0  0
   31.0001   -3.8632   23.4566 C   0  0  0  0  0  0
   32.0841   -3.0589   23.1093 C   0  0  0  0  0  0
   32.4840   -2.0436   23.9597 C   0  0  0  0  0  0
   31.8205   -1.8299   25.1563 C   0  0  0  0  0  0
   32.8562   -3.0940   21.9859 O   0  0  0  0  0  0
   32.2739   -2.5767   20.7992 C   0  0  0  0  0  0
   32.1648   -3.6565   19.7559 C   0  0  0  0  0  0
   31.6251   -3.5789   18.4119 N   0  0  0  0  0  0
   31.6615   -4.9253   17.8059 C   0  0  0  0  0  0
   30.9739   -5.0059   16.4281 C   0  0  0  0  0  0
   31.7529   -4.0706   15.4892 C   0  0  0  0  0  0
   31.5162   -2.6521   16.0929 C   0  0  0  0  0  0
   32.2229   -2.6230   17.4594 C   0  0  0  0  0  0
   34.9281    1.9230   29.8160 H   0  0  0  0  0  0
   23.2175   -1.7584   26.7213 H   0  0  0  0  0  0
  1  2  2  0  0  0
  1 16  1  0  0  0
  2  3  1  0  0  0
  3  4  1  0  0  0
  3  5  2  0  0  0
  4 35  1  0  0  0
  5  6  1  0  0  0
  6  7  1  0  0  0
  6 16  2  0  0  0
  7  8  1  0  0  0
  8  9  1  0  0  0
  8 17  2  0  0  0
  9 10  2  0  0  0
  9 15  1  0  0  0
 10 11  1  0  0  0
 11 12  2  0  0  0
 12 13  1  0  0  0
 12 14  1  0  0  0
 13 36  1  0  0  0
 14 15  2  0  0  0
 16 17  1  0  0  0
 17 18  1  0  0  0
 18 19  2  0  0  0
 18 20  1  0  0  0
 20 21  2  0  0  0
 20 25  1  0  0  0
 21 22  1  0  0  0
 22 23  2  0  0  0
 23 24  1  0  0  0
 23 26  1  0  0  0
 24 25  2  0  0  0
 26 27  1  0  0  0
 27 28  1  0  0  0
 28 29  1  0  0  0
 29 30  1  0  0  0
 29 34  1  0  0  0
 30 31  1  0  0  0
 31 32  1  0  0  0
 32 33  1  0  0  0
 33 34  1  0  0  0
M  END
>  <CHROM.0>
-19.41373289,-60.56480275,97.31237436

>  <CHROM.1>
-171.10819561,42.98974037,173.91836181,-53.68591775,-164.16502515,74.76192747
-117.93561838,179.36805575,-176.45201933,30.48107565,-1.71660555,24.74008968
-1.78096516,-0.08159195,-1.91761001

>  <FORMUL>
      RAL    C28 H27 N1 O4 S1

>  <HET>
 RAL  A 600      34

>  <HETNAM>
     RAL RALOXIFENE

>  <Name>
RAL.pdb

>  <RI>
0

>  <Rbt.Current_Directory>
/home/malgorzata/Desktop/rDOCK_IFD/Wyniki/6a_estrogen_receptor

>  <Rbt.Executable>
rbdock ($Id: //depot/dev/client3/rdock/2013.1/src/exe/rbdock.cxx#4 $)

>  <Rbt.Library>
libRbt.so (2013.1, Build901 2013/11/27)

>  <Rbt.Parameter_File>
/home/malgorzata/Desktop/rDock_2013.1_src/data/scripts/soft_docking.prm

>  <Rbt.Receptor>
cavity.prm

>  <SCORE>
-28.9128

>  <SCORE.INTER>
-31.1284

>  <SCORE.INTER.CONST>
1

>  <SCORE.INTER.POLAR>
-1.34346

>  <SCORE.INTER.REPUL>
0.000962555

>  <SCORE.INTER.ROT>
7

>  <SCORE.INTER.VDW>
-38.9654

>  <SCORE.INTER.norm>
-0.91554

>  <SCORE.INTRA>
2.51333

>  <SCORE.INTRA.DIHEDRAL>
8.33881

>  <SCORE.INTRA.DIHEDRAL.0>
18.358

>  <SCORE.INTRA.POLAR>
0

>  <SCORE.INTRA.POLAR.0>
0

>  <SCORE.INTRA.REPUL>
0

>  <SCORE.INTRA.REPUL.0>
0

>  <SCORE.INTRA.VDW>
0.845567

>  <SCORE.INTRA.VDW.0>
-1.94569

>  <SCORE.INTRA.norm>
0.0739215

>  <SCORE.RESTR>
0.263135

>  <SCORE.RESTR.CAVITY>
0.263135

>  <SCORE.RESTR.norm>
0.00773928

>  <SCORE.SYSTEM>
-0.56095

>  <SCORE.SYSTEM.CONST>
0

>  <SCORE.SYSTEM.DIHEDRAL>
0.80213

>  <SCORE.SYSTEM.VDW>
-0.962015

>  <SCORE.SYSTEM.norm>
-0.0164985

>  <SCORE.heavy>
34

>  <SCORE.norm>
-0.850378

$$$$
RAL.pdb
  rDOCK(R)          3D
libRbt.so/2013.1/901 2013/11/27
 36 40  0  0  0  0  0  0  0  0999 V2000
   33.7127   -1.1829   27.8551 C   0  0  0  0  0  0
   34.9699   -0.6694   28.0445 C   0  0  0  0  0  0
   35.1876    0.6465   28.3439 C   0  0  0  0  0  0
   36.4916    1.0281   28.5386 O   0  0  0  0  0  0
   34.0929    1.5074   28.4826 C   0  0  0  0  0  0
   32.8340    0.9818   28.3262 C   0  0  0  0  0  0
   31.3653    1.7378   28.3774 S   0  0  0  0  0  0
   30.3932    0.3874   28.0927 C   0  0  0  0  0  0
   28.9126    0.4539   27.9346 C   0  0  0  0  0  0
   28.2516   -0.7526   28.0592 C   0  0  0  0  0  0
   26.8670   -0.7516   28.0103 C   0  0  0  0  0  0
   26.1537    0.4124   27.8019 C   0  0  0  0  0  0
   24.7614    0.3148   27.7719 O   0  0  0  0  0  0
   26.8128    1.6216   27.7239 C   0  0  0  0  0  0
   28.2007    1.6129   27.7909 C   0  0  0  0  0  0
   32.6374   -0.3899   27.9978 C   0  0  0  0  0  0
   31.2299   -0.7195   27.8372 C   0  0  0  0  0  0
   30.8009   -1.9847   27.4837 C   0  0  0  0  0  0
   30.1190   -2.6389   28.2826 O   0  0  0  0  0  0
   31.1313   -2.6046   26.1958 C   0  0  0  0  0  0
   30.4375   -2.2636   25.0521 C   0  0  0  0  0  0
   30.7135   -2.8392   23.8271 C   0  0  0  0  0  0
   31.7052   -3.8160   23.7545 C   0  0  0  0  0  0
   32.4125   -4.1599   24.8927 C   0  0  0  0  0  0
   32.1334   -3.5472   26.1028 C   0  0  0  0  0  0
   32.1388   -4.5229   22.6721 O   0  0  0  0  0  0
   31.6730   -4.0896   21.4031 C   0  0  0  0  0  0
   32.8175   -3.9955   20.4296 C   0  0  0  0  0  0
   32.7893   -3.6985   19.0103 N   0  0  0  0  0  0
   31.6424   -2.8104   18.7325 C   0  0  0  0  0  0
   31.5901   -2.2983   17.2790 C   0  0  0  0  0  0
   31.4279   -3.5344   16.3797 C   0  0  0  0  0  0
   32.7537   -4.3280   16.5914 C   0  0  0  0  0  0
   32.7543   -4.8186   18.0498 C   0  0  0  0  0  0
   37.0104    1.3115   27.8116 H   0  0  0  0  0  0
   24.2417    1.0771   27.6079 H   0  0  0  0  0  0
  1  2  2  0  0  0
  1 16  1  0  0  0
  2  3  1  0  0  0
  3  4  1  0  0  0
  3  5  2  0  0  0
  4 35  1  0  0  0
  5  6  1  0  0  0
  6  7  1  0  0  0
  6 16  2  0  0  0
  7  8  1  0  0  0
  8  9  1  0  0  0
  8 17  2  0  0  0
  9 10  2  0  0  0
  9 15  1  0  0  0
 10 11  1  0  0  0
 11 12  2  0  0  0
 12 13  1  0  0  0
 12 14  1  0  0  0
 13 36  1  0  0  0
 14 15  2  0  0  0
 16 17  1  0  0  0
 17 18  1  0  0  0
 18 19  2  0  0  0
 18 20  1  0  0  0
 20 21  2  0  0  0
 20 25  1  0  0  0
 21 22  1  0  0  0
 22 23  2  0  0  0
 23 24  1  0  0  0
 23 26  1  0  0  0
 24 25  2  0  0  0
 26 27  1  0  0  0
 27 28  1  0  0  0
 28 29  1  0  0  0
 29 30  1  0  0  0
 29 34  1  0  0  0
 30 31  1  0  0  0
 31 32  1  0  0  0
 32 33  1  0  0  0
 33 34  1  0  0  0
M  END
>  <CHROM.0>
-93.90592454,-60.56480275,63.56682928

>  <CHROM.1>
88.83713195,-163.70419224,-178.19719956,-63.80815434,-79.30156111,10.31131462
132.55182780,174.68863149,30.26143612,31.24552734,-1.43188375,25.11775323
-1.74415024,0.04878620,-1.98687654

>  <FORMUL>
      RAL    C28 H27 N1 O4 S1

>  <HET>
 RAL  A 600      34

>  <HETNAM>
     RAL RALOXIFENE

>  <Name>
RAL.pdb

>  <RI>
0

>  <Rbt.Current_Directory>
/home/malgorzata/Desktop/rDOCK_IFD/Wyniki/6a_estrogen_receptor

>  <Rbt.Executable>
rbdock ($Id: //depot/dev/client3/rdock/2013.1/src/exe/rbdock.cxx#4 $)

>  <Rbt.Library>
libRbt.so (2013.1, Build901 2013/11/27)

>  <Rbt.Parameter_File>
/home/malgorzata/Desktop/rDock_2013.1_src/data/scripts/soft_docking.prm

>  <Rbt.Receptor>
cavity.prm

>  <SCORE>
-32.3859

>  <SCORE.INTER>
-35.9705

>  <SCORE.INTER.CONST>
1

>  <SCORE.INTER.POLAR>
-1.27638

>  <SCORE.INTER.REPUL>
0.0125476

>  <SCORE.INTER.ROT>
7

>  <SCORE.INTER.VDW>
-44.0935

>  <SCORE.INTER.norm>
-1.05795

>  <SCORE.INTRA>
4.64173

>  <SCORE.INTRA.DIHEDRAL>
17.4088

>  <SCORE.INTRA.DIHEDRAL.0>
18.358

>  <SCORE.INTRA.POLAR>
0

>  <SCORE.INTRA.POLAR.0>
0

>  <SCORE.INTRA.REPUL>
0

>  <SCORE.INTRA.REPUL.0>
0

>  <SCORE.INTRA.VDW>
1.15997

>  <SCORE.INTRA.VDW.0>
-1.94569

>  <SCORE.INTRA.norm>
0.136521

>  <SCORE.RESTR>
0.0271275

>  <SCORE.RESTR.CAVITY>
0.0271275

>  <SCORE.RESTR.norm>
0.000797867

>  <SCORE.SYSTEM>
-1.08429

>  <SCORE.SYSTEM.CONST>
0

>  <SCORE.SYSTEM.DIHEDRAL>
0.803793

>  <SCORE.SYSTEM.VDW>
-1.48619

>  <SCORE.SYSTEM.norm>
-0.0318909

>  <SCORE.heavy>
34

>  <SCORE.norm>
-0.952526

$$$$
RAL.pdb
  rDOCK(R)          3D
libRbt.so/2013.1/901 2013/11/27
 36 40  0  0  0  0  0  0  0  0999 V2000
   33.3170   -1.5644   28.4261 C   0  0  0  0  0  0
   34.4095   -1.2654   29.1988 C   0  0  0  0  0  0
   34.3536   -0.3768   30.2361 C   0  0  0  0  0  0
   35.5102   -0.1879   30.9506 O   0  0  0  0  0  0
   33.1368    0.2436   30.5415 C   0  0  0  0  0  0
   32.0373   -0.0845   29.7871 C   0  0  0  0  0  0
   30.4950    0.5040   29.8655 S   0  0  0  0  0  0
   29.8257   -0.4178   28.6197 C   0  0  0  0  0  0
   28.4225   -0.2646   28.1408 C   0  0  0  0  0  0
   27.5324   -1.2104   28.6112 C   0  0  0  0  0  0
   26.1946   -1.0779   28.2763 C   0  0  0  0  0  0
   25.7535   -0.0548   27.4603 C   0  0  0  0  0  0
   24.3867   -0.0009   27.1813 O   0  0  0  0  0  0
   26.6357    0.9142   27.0297 C   0  0  0  0  0  0
   27.9726    0.7824   27.3845 C   0  0  0  0  0  0
   32.1284   -1.0014   28.7012 C   0  0  0  0  0  0
   30.8566   -1.1677   28.0152 C   0  0  0  0  0  0
   30.7129   -1.9825   26.9084 C   0  0  0  0  0  0
   29.7262   -2.7248   26.8261 O   0  0  0  0  0  0
   31.6938   -2.0221   25.8183 C   0  0  0  0  0  0
   31.6779   -1.0664   24.8224 C   0  0  0  0  0  0
   32.5775   -1.0835   23.7742 C   0  0  0  0  0  0
   33.5101   -2.1172   23.7092 C   0  0  0  0  0  0
   33.5406   -3.0760   24.7061 C   0  0  0  0  0  0
   32.6442   -3.0194   25.7601 C   0  0  0  0  0  0
   34.4768   -2.3462   22.7752 O   0  0  0  0  0  0
   34.0340   -2.7644   21.4930 C   0  0  0  0  0  0
   35.2000   -2.8768   20.5473 C   0  0  0  0  0  0
   35.4755   -2.1208   19.3407 N   0  0  0  0  0  0
   34.5181   -2.5303   18.2934 C   0  0  0  0  0  0
   34.6092   -1.6892   17.0042 C   0  0  0  0  0  0
   36.0193   -1.9070   16.4322 C   0  0  0  0  0  0
   36.9605   -1.2875   17.5107 C   0  0  0  0  0  0
   36.8361   -2.1627   18.7701 C   0  0  0  0  0  0
   36.3397   -0.3756   30.5575 H   0  0  0  0  0  0
   23.9013    0.7791   27.3660 H   0  0  0  0  0  0
  1  2  2  0  0  0
  1 16  1  0  0  0
  2  3  1  0  0  0
  3  4  1  0  0  0
  3  5  2  0  0  0
  4 35  1  0  0  0
  5  6  1  0  0  0
  6  7  1  0  0  0
  6 16  2  0  0  0
  7  8  1  0  0  0
  8  9  1  0  0  0
  8 17  2  0  0  0
  9 10  2  0  0  0
  9 15  1  0  0  0
 10 11  1  0  0  0
 11 12  2  0  0  0
 12 13  1  0  0  0
 12 14  1  0  0  0
 13 36  1  0  0  0
 14 15  2  0  0  0
 16 17  1  0  0  0
 17 18  1  0  0  0
 18 19  2  0  0  0
 18 20  1  0  0  0
 20 21  2  0  0  0
 20 25  1  0  0  0
 21 22  1  0  0  0
 22 23  2  0  0  0
 23 24  1  0  0  0
 23 26  1  0  0  0
 24 25  2  0  0  0
 26 27  1  0  0  0
 27 28  1  0  0  0
 28 29  1  0  0  0
 29 30  1  0  0  0
 29 34  1  0  0  0
 30 31  1  0  0  0
 31 32  1  0  0  0
 32 33  1  0  0  0
 33 34  1  0  0  0
M  END
>  <CHROM.0>
-70.91592309,-60.56480275,139.52278438

>  <CHROM.1>
23.38345296,-100.83610088,124.52510085,-42.92836843,-81.63192839,-70.63657310
175.79201014,-116.03490941,-70.98583232,31.96591167,-1.21087504,25.45047827
-2.12116609,0.09748828,-1.69743162

>  <FORMUL>
      RAL    C28 H27 N1 O4 S1

>  <HET>
 RAL  A 600      34

>  <HETNAM>
     RAL RALOXIFENE

>  <Name>
RAL.pdb

>  <RI>
0

>  <Rbt.Current_Directory>
/home/malgorzata/Desktop/rDOCK_IFD/Wyniki/6a_estrogen_receptor

>  <Rbt.Executable>
rbdock ($Id: //depot/dev/client3/rdock/2013.1/src/exe/rbdock.cxx#4 $)

>  <Rbt.Library>
libRbt.so (2013.1, Build901 2013/11/27)

>  <Rbt.Parameter_File>
/home/malgorzata/Desktop/rDock_2013.1_src/data/scripts/soft_docking.prm

>  <Rbt.Receptor>
cavity.prm

>  <SCORE>
-30.4959

>  <SCORE.INTER>
-33.2749

>  <SCORE.INTER.CONST>
1

>  <SCORE.INTER.POLAR>
-2.44582

>  <SCORE.INTER.REPUL>
0.191443

>  <SCORE.INTER.ROT>
7

>  <SCORE.INTER.VDW>
-38.3163

>  <SCORE.INTER.norm>
-0.978672

>  <SCORE.INTRA>
3.27142

>  <SCORE.INTRA.DIHEDRAL>
25.63

>  <SCORE.INTRA.DIHEDRAL.0>
18.358

>  <SCORE.INTRA.POLAR>
0

>  <SCORE.INTRA.POLAR.0>
0

>  <SCORE.INTRA.REPUL>
0

>  <SCORE.INTRA.REPUL.0>
0

>  <SCORE.INTRA.VDW>
-1.85458

>  <SCORE.INTRA.VDW.0>
-1.94569

>  <SCORE.INTRA.norm>
0.0962184

>  <SCORE.RESTR>
0.251644

>  <SCORE.RESTR.CAVITY>
0.251644

>  <SCORE.RESTR.norm>
0.0074013

>  <SCORE.SYSTEM>
-0.744123

>  <SCORE.SYSTEM.CONST>
0

>  <SCORE.SYSTEM.DIHEDRAL>
0.806441

>  <SCORE.SYSTEM.VDW>
-1.14734

>  <SCORE.SYSTEM.norm>
-0.021886

>  <SCORE.heavy>
34

>  <SCORE.norm>
-0.896938

$$$$
RAL.pdb
  rDOCK(R)          3D
libRbt.so/2013.1/901 2013/11/27
 36 40  0  0  0  0  0  0  0  0999 V2000
   29.0625   -2.5205   28.0407 C   0  0  0  0  0  0
   27.7367   -2.6500   28.3653 C   0  0  0  0  0  0
   27.0213   -1.6400   28.9456 C   0  0  0  0  0  0
   25.6939   -1.8865   29.1933 O   0  0  0  0  0  0
   27.6505   -0.4174   29.2065 C   0  0  0  0  0  0
   28.9690   -0.2802   28.8484 C   0  0  0  0  0  0
   29.9895    1.0013   29.0659 S   0  0  0  0  0  0
   31.3658    0.3323   28.3533 C   0  0  0  0  0  0
   32.6926    1.0109   28.3217 C   0  0  0  0  0  0
   33.4265    0.9252   29.4887 C   0  0  0  0  0  0
   34.7053    1.4583   29.5017 C   0  0  0  0  0  0
   35.2309    2.0982   28.3965 C   0  0  0  0  0  0
   36.5292    2.6000   28.5030 O   0  0  0  0  0  0
   34.5147    2.1421   27.2184 C   0  0  0  0  0  0
   33.2396    1.5899   27.2099 C   0  0  0  0  0  0
   29.6946   -1.3553   28.2604 C   0  0  0  0  0  0
   31.0826   -1.0048   28.0032 C   0  0  0  0  0  0
   31.9865   -1.9026   27.4680 C   0  0  0  0  0  0
   32.6484   -2.6217   28.2269 O   0  0  0  0  0  0
   32.2137   -2.0365   26.0248 C   0  0  0  0  0  0
   32.2132   -0.9250   25.2064 C   0  0  0  0  0  0
   32.4091   -1.0179   23.8421 C   0  0  0  0  0  0
   32.5832   -2.2793   23.2752 C   0  0  0  0  0  0
   32.5936   -3.3996   24.0868 C   0  0  0  0  0  0
   32.4218   -3.2749   25.4552 C   0  0  0  0  0  0
   32.7789   -2.6154   21.9682 O   0  0  0  0  0  0
   34.1137   -2.5515   21.4895 C   0  0  0  0  0  0
   34.1312   -2.1447   20.0402 C   0  0  0  0  0  0
   34.2183   -2.9787   18.8568 N   0  0  0  0  0  0
   35.5693   -2.8412   18.2760 C   0  0  0  0  0  0
   35.8390   -3.7964   17.0959 C   0  0  0  0  0  0
   34.8363   -3.4285   15.9904 C   0  0  0  0  0  0
   33.4486   -3.7711   16.6145 C   0  0  0  0  0  0
   33.2269   -2.7909   17.7797 C   0  0  0  0  0  0
   25.3576   -2.7580   29.1202 H   0  0  0  0  0  0
   37.2370    2.1638   28.0708 H   0  0  0  0  0  0
  1  2  2  0  0  0
  1 16  1  0  0  0
  2  3  1  0  0  0
  3  4  1  0  0  0
  3  5  2  0  0  0
  4 35  1  0  0  0
  5  6  1  0  0  0
  6  7  1  0  0  0
  6 16  2  0  0  0
  7  8  1  0  0  0
  8  9  1  0  0  0
  8 17  2  0  0  0
  9 10  2  0  0  0
  9 15  1  0  0  0
 10 11  1  0  0  0
 11 12  2  0  0  0
 12 13  1  0  0  0
 12 14  1  0  0  0
 13 36  1  0  0  0
 14 15  2  0  0  0
 16 17  1  0  0  0
 17 18  1  0  0  0
 18 19  2  0  0  0
 18 20  1  0  0  0
 20 21  2  0  0  0
 20 25  1  0  0  0
 21 22  1  0  0  0
 22 23  2  0  0  0
 23 24  1  0  0  0
 23 26  1  0  0  0
 24 25  2  0  0  0
 26 27  1  0  0  0
 27 28  1  0  0  0
 28 29  1  0  0  0
 29 30  1  0  0  0
 29 34  1  0  0  0
 30 31  1  0  0  0
 31 32  1  0  0  0
 32 33  1  0  0  0
 33 34  1  0  0  0
M  END
>  <CHROM.0>
-40.80581216,-60.56480275,131.65342285

>  <CHROM.1>
11.61843214,79.63552776,105.93576634,90.54070320,38.01048842,84.36636872
-146.87031108,-96.81814238,-106.70057546,32.18580771,-1.20737268,25.24091272
1.96015184,0.43688156,1.12617993

>  <FORMUL>
      RAL    C28 H27 N1 O4 S1

>  <HET>
 RAL  A 600      34

>  <HETNAM>
     RAL RALOXIFENE

>  <Name>
RAL.pdb

>  <RI>
0

>  <Rbt.Current_Directory>
/home/malgorzata/Desktop/rDOCK_IFD/Wyniki/6a_estrogen_receptor

>  <Rbt.Executable>
rbdock ($Id: //depot/dev/client3/rdock/2013.1/src/exe/rbdock.cxx#4 $)

>  <Rbt.Library>
libRbt.so (2013.1, Build901 2013/11/27)

>  <Rbt.Parameter_File>
/home/malgorzata/Desktop/rDock_2013.1_src/data/scripts/soft_docking.prm

>  <Rbt.Receptor>
cavity.prm

>  <SCORE>
-27.1328

>  <SCORE.INTER>
-30.3525

>  <SCORE.INTER.CONST>
1

>  <SCORE.INTER.POLAR>
-1.2

>  <SCORE.INTER.REPUL>
0.0480472

>  <SCORE.INTER.ROT>
7

>  <SCORE.INTER.VDW>
-38.9127

>  <SCORE.INTER.norm>
-0.89272

>  <SCORE.INTRA>
3.81274

>  <SCORE.INTRA.DIHEDRAL>
29.8023

>  <SCORE.INTRA.DIHEDRAL.0>
18.358

>  <SCORE.INTRA.POLAR>
0

>  <SCORE.INTRA.POLAR.0>
0

>  <SCORE.INTRA.REPUL>
0

>  <SCORE.INTRA.REPUL.0>
0

>  <SCORE.INTRA.VDW>
-2.14773

>  <SCORE.INTRA.VDW.0>
-1.94569

>  <SCORE.INTRA.norm>
0.112139

>  <SCORE.RESTR>
0

>  <SCORE.RESTR.CAVITY>
0

>  <SCORE.RESTR.norm>
0

>  <SCORE.SYSTEM>
-0.593042

>  <SCORE.SYSTEM.CONST>
0

>  <SCORE.SYSTEM.DIHEDRAL>
0.805871

>  <SCORE.SYSTEM.VDW>
-0.995978

>  <SCORE.SYSTEM.norm>
-0.0174424

>  <SCORE.heavy>
34

>  <SCORE.norm>
-0.798023

$$$$
RAL.pdb
  rDOCK(R)          3D
libRbt.so/2013.1/901 2013/11/27
 36 40  0  0  0  0  0  0  0  0999 V2000
   36.4512   -2.0612   21.1403 C   0  0  0  0  0  0
   37.5707   -1.3814   20.7347 C   0  0  0  0  0  0
   37.6465   -0.7472   19.5261 C   0  0  0  0  0  0
   38.8125   -0.0769   19.2522 O   0  0  0  0  0  0
   36.5396   -0.7707   18.6699 C   0  0  0  0  0  0
   35.4085   -1.4233   19.0944 C   0  0  0  0  0  0
   33.9770   -1.6673   18.3054 S   0  0  0  0  0  0
   33.1815   -2.5305   19.5185 C   0  0  0  0  0  0
   31.8237   -3.1235   19.3558 C   0  0  0  0  0  0
   30.9359   -2.8531   20.3789 C   0  0  0  0  0  0
   29.6305   -3.2997   20.2516 C   0  0  0  0  0  0
   29.2230   -4.0328   19.1545 C   0  0  0  0  0  0
   27.8871   -4.4358   19.1126 O   0  0  0  0  0  0
   30.0983   -4.2620   18.1133 C   0  0  0  0  0  0
   31.4009   -3.7957   18.2423 C   0  0  0  0  0  0
   35.3635   -2.0900   20.3520 C   0  0  0  0  0  0
   34.0870   -2.7495   20.5782 C   0  0  0  0  0  0
   33.8262   -3.4884   21.7165 C   0  0  0  0  0  0
   34.3257   -4.6142   21.8361 O   0  0  0  0  0  0
   32.9624   -3.0029   22.7982 C   0  0  0  0  0  0
   32.6546   -3.8151   23.8711 C   0  0  0  0  0  0
   31.8326   -3.3940   24.8985 C   0  0  0  0  0  0
   31.2755   -2.1182   24.8300 C   0  0  0  0  0  0
   31.5834   -1.2926   23.7634 C   0  0  0  0  0  0
   32.4322   -1.7306   22.7607 C   0  0  0  0  0  0
   30.4371   -1.4975   25.7081 O   0  0  0  0  0  0
   29.1844   -2.1235   25.9400 C   0  0  0  0  0  0
   28.4998   -1.5008   27.1275 C   0  0  0  0  0  0
   29.0223   -0.5501   28.0901 N   0  0  0  0  0  0
   30.0783   -1.2091   28.8849 C   0  0  0  0  0  0
   30.8200   -0.2568   29.8445 C   0  0  0  0  0  0
   29.7743    0.2718   30.8395 C   0  0  0  0  0  0
   28.7992    1.1040   29.9510 C   0  0  0  0  0  0
   28.0842    0.1105   29.0186 C   0  0  0  0  0  0
   39.6384   -0.4758   19.4441 H   0  0  0  0  0  0
   27.6466   -5.2921   19.4075 H   0  0  0  0  0  0
  1  2  2  0  0  0
  1 16  1  0  0  0
  2  3  1  0  0  0
  3  4  1  0  0  0
  3  5  2  0  0  0
  4 35  1  0  0  0
  5  6  1  0  0  0
  6  7  1  0  0  0
  6 16  2  0  0  0
  7  8  1  0  0  0
  8  9  1  0  0  0
  8 17  2  0  0  0
  9 10  2  0  0  0
  9 15  1  0  0  0
 10 11  1  0  0  0
 11 12  2  0  0  0
 12 13  1  0  0  0
 12 14  1  0  0  0
 13 36  1  0  0  0
 14 15  2  0  0  0
 16 17  1  0  0  0
 17 18  1  0  0  0
 18 19  2  0  0  0
 18 20  1  0  0  0
 20 21  2  0  0  0
 20 25  1  0  0  0
 21 22  1  0  0  0
 22 23  2  0  0  0
 23 24  1  0  0  0
 23 26  1  0  0  0
 24 25  2  0  0  0
 26 27  1  0  0  0
 27 28  1  0  0  0
 28 29  1  0  0  0
 29 30  1  0  0  0
 29 34  1  0  0  0
 30 31  1  0  0  0
 31 32  1  0  0  0
 32 33  1  0  0  0
 33 34  1  0  0  0
M  END
>  <CHROM.0>
-98.28034639,-60.56480275,-106.38527210

>  <CHROM.1>
44.17064482,-131.47252334,-96.05038857,105.39873256,175.32507733,-60.57578599
168.00381583,-9.28740198,-66.87150866,32.24037539,-2.03665405,22.67458530
-1.03166464,0.30246807,1.23194966

>  <FORMUL>
      RAL    C28 H27 N1 O4 S1

>  <HET>
 RAL  A 600      34

>  <HETNAM>
     RAL RALOXIFENE

>  <Name>
RAL.pdb

>  <RI>
0

>  <Rbt.Current_Directory>
/home/malgorzata/Desktop/rDOCK_IFD/Wyniki/6a_estrogen_receptor

>  <Rbt.Executable>
rbdock ($Id: //depot/dev/client3/rdock/2013.1/src/exe/rbdock.cxx#4 $)

>  <Rbt.Library>
libRbt.so (2013.1, Build901 2013/11/27)

>  <Rbt.Parameter_File>
/home/malgorzata/Desktop/rDock_2013.1_src/data/scripts/soft_docking.prm

>  <Rbt.Receptor>
cavity.prm

>  <SCORE>
-26.0126

>  <SCORE.INTER>
-27.1442

>  <SCORE.INTER.CONST>
1

>  <SCORE.INTER.POLAR>
0

>  <SCORE.INTER.REPUL>
0

>  <SCORE.INTER.ROT>
7

>  <SCORE.INTER.VDW>
-39.5442

>  <SCORE.INTER.norm>
-0.798358

>  <SCORE.INTRA>
1.80825

>  <SCORE.INTRA.DIHEDRAL>
16.6144

>  <SCORE.INTRA.DIHEDRAL.0>
18.358

>  <SCORE.INTRA.POLAR>
0

>  <SCORE.INTRA.POLAR.0>
0

>  <SCORE.INTRA.REPUL>
0

>  <SCORE.INTRA.REPUL.0>
0

>  <SCORE.INTRA.VDW>
-1.51463

>  <SCORE.INTRA.VDW.0>
-1.94569

>  <SCORE.INTRA.norm>
0.0531838

>  <SCORE.RESTR>
0.19787

>  <SCORE.RESTR.CAVITY>
0.19787

>  <SCORE.RESTR.norm>
0.00581971

>  <SCORE.SYSTEM>
-0.874578

>  <SCORE.SYSTEM.CONST>
0

>  <SCORE.SYSTEM.DIHEDRAL>
0.805916

>  <SCORE.SYSTEM.VDW>
-1.27754

>  <SCORE.SYSTEM.norm>
-0.0257229

>  <SCORE.heavy>
34

>  <SCORE.norm>
-0.765077

$$$$
RAL.pdb
  rDOCK(R)          3D
libRbt.so/2013.1/901 2013/11/27
 36 40  0  0  0  0  0  0  0  0999 V2000
   27.6748   -0.5863   27.6300 C   0  0  0  0  0  0
   26.5458   -0.7672   28.3867 C   0  0  0  0  0  0
   26.5831   -0.8582   29.7502 C   0  0  0  0  0  0
   25.3795   -1.0091   30.3923 O   0  0  0  0  0  0
   27.8120   -0.7458   30.4106 C   0  0  0  0  0  0
   28.9357   -0.5302   29.6516 C   0  0  0  0  0  0
   30.5148   -0.4057   30.1231 S   0  0  0  0  0  0
   31.1981   -0.1540   28.6001 C   0  0  0  0  0  0
   32.6655   -0.0504   28.3599 C   0  0  0  0  0  0
   33.0720    1.0758   27.6709 C   0  0  0  0  0  0
   34.4301    1.2802   27.4885 C   0  0  0  0  0  0
   35.3637    0.3695   27.9426 C   0  0  0  0  0  0
   36.7094    0.6633   27.7157 O   0  0  0  0  0  0
   34.9586   -0.7303   28.6701 C   0  0  0  0  0  0
   33.5954   -0.9182   28.8625 C   0  0  0  0  0  0
   28.8695   -0.4564   28.2309 C   0  0  0  0  0  0
   30.1804   -0.2674   27.6295 C   0  0  0  0  0  0
   30.3654   -0.2021   26.2616 C   0  0  0  0  0  0
   29.8988    0.7553   25.6318 O   0  0  0  0  0  0
   31.0852   -1.2341   25.5071 C   0  0  0  0  0  0
   31.2987   -1.0936   24.1506 C   0  0  0  0  0  0
   31.9594   -2.0532   23.4083 C   0  0  0  0  0  0
   32.3965   -3.2114   24.0487 C   0  0  0  0  0  0
   32.1951   -3.3594   25.4094 C   0  0  0  0  0  0
   31.5537   -2.3691   26.1344 C   0  0  0  0  0  0
   33.0522   -4.2874   23.5275 O   0  0  0  0  0  0
   34.3891   -4.0708   23.1021 C   0  0  0  0  0  0
   34.6635   -4.8297   21.8312 C   0  0  0  0  0  0
   35.8724   -4.8672   21.0309 N   0  0  0  0  0  0
   35.8275   -6.0563   20.1561 C   0  0  0  0  0  0
   36.9891   -6.1284   19.1445 C   0  0  0  0  0  0
   38.2854   -6.2245   19.9651 C   0  0  0  0  0  0
   38.3527   -4.8612   20.7197 C   0  0  0  0  0  0
   37.1798   -4.8417   21.7155 C   0  0  0  0  0  0
   25.3382   -1.4671   31.2087 H   0  0  0  0  0  0
   37.3582    0.3984   28.3378 H   0  0  0  0  0  0
  1  2  2  0  0  0
  1 16  1  0  0  0
  2  3  1  0  0  0
  3  4  1  0  0  0
  3  5  2  0  0  0
  4 35  1  0  0  0
  5  6  1  0  0  0
  6  7  1  0  0  0
  6 16  2  0  0  0
  7  8  1  0  0  0
  8  9  1  0  0  0
  8 17  2  0  0  0
  9 10  2  0  0  0
  9 15  1  0  0  0
 10 11  1  0  0  0
 11 12  2  0  0  0
 12 13  1  0  0  0
 12 14  1  0  0  0
 13 36  1  0  0  0
 14 15  2  0  0  0
 16 17  1  0  0  0
 17 18  1  0  0  0
 18 19  2  0  0  0
 18 20  1  0  0  0
 20 21  2  0  0  0
 20 25  1  0  0  0
 21 22  1  0  0  0
 22 23  2  0  0  0
 23 24  1  0  0  0
 23 26  1  0  0  0
 24 25  2  0  0  0
 26 27  1  0  0  0
 27 28  1  0  0  0
 28 29  1  0  0  0
 29 30  1  0  0  0
 29 34  1  0  0  0
 30 31  1  0  0  0
 31 32  1  0  0  0
 32 33  1  0  0  0
 33 34  1  0  0  0
M  END
>  <CHROM.0>
-2.28962987,-60.56480275,7.77158979

>  <CHROM.1>
150.83724801,-127.10415948,146.71520253,-112.84708725,-176.94617421,68.78752557
-141.09856074,178.03687539,161.61717183,32.34653543,-1.85044843,25.95242784
2.26399688,0.13839930,0.92969207

>  <FORMUL>
      RAL    C28 H27 N1 O4 S1

>  <HET>
 RAL  A 600      34

>  <HETNAM>
     RAL RALOXIFENE

>  <Name>
RAL.pdb

>  <RI>
0

>  <Rbt.Current_Directory>
/home/malgorzata/Desktop/rDOCK_IFD/Wyniki/6a_estrogen_receptor

>  <Rbt.Executable>
rbdock ($Id: //depot/dev/client3/rdock/2013.1/src/exe/rbdock.cxx#4 $)

>  <Rbt.Library>
libRbt.so (2013.1, Build901 2013/11/27)

>  <Rbt.Parameter_File>
/home/malgorzata/Desktop/rDock_2013.1_src/data/scripts/soft_docking.prm

>  <Rbt.Receptor>
cavity.prm

>  <SCORE>
-27.4967

>  <SCORE.INTER>
-27.9127

>  <SCORE.INTER.CONST>
1

>  <SCORE.INTER.POLAR>
-0.720064

>  <SCORE.INTER.REPUL>
0

>  <SCORE.INTER.ROT>
7

>  <SCORE.INTER.VDW>
-37.8645

>  <SCORE.INTER.norm>
-0.820961

>  <SCORE.INTRA>
0.874147

>  <SCORE.INTRA.DIHEDRAL>
12.5812

>  <SCORE.INTRA.DIHEDRAL.0>
18.358

>  <SCORE.INTRA.POLAR>
0

>  <SCORE.INTRA.POLAR.0>
0

>  <SCORE.INTRA.REPUL>
0

>  <SCORE.INTRA.REPUL.0>
0

>  <SCORE.INTRA.VDW>
-1.64208

>  <SCORE.INTRA.VDW.0>
-1.94569

>  <SCORE.INTRA.norm>
0.0257102

>  <SCORE.RESTR>
0.180359

>  <SCORE.RESTR.CAVITY>
0.180359

>  <SCORE.RESTR.norm>
0.00530468

>  <SCORE.SYSTEM>
-0.638554

>  <SCORE.SYSTEM.CONST>
0

>  <SCORE.SYSTEM.DIHEDRAL>
0.805367

>  <SCORE.SYSTEM.VDW>
-1.04124

>  <SCORE.SYSTEM.norm>
-0.018781

>  <SCORE.heavy>
34

>  <SCORE.norm>
-0.808727

$$$$
RAL.pdb
  rDOCK(R)          3D
libRbt.so/2013.1/901 2013/11/27
 36 40  0  0  0  0  0  0  0  0999 V2000
   34.0251   -1.2455   27.0366 C   0  0  0  0  0  0
   35.0566   -0.3981   27.3493 C   0  0  0  0  0  0
   34.9007    0.6689   28.1895 C   0  0  0  0  0  0
   36.0191    1.4226   28.4448 O   0  0  0  0  0  0
   33.6503    0.9045   28.7723 C   0  0  0  0  0  0
   32.6288    0.0336   28.4837 C   0  0  0  0  0  0
   31.0488    0.0692   28.9672 S   0  0  0  0  0  0
   30.5271   -1.3278   28.1761 C   0  0  0  0  0  0
   29.1103   -1.7910   28.1656 C   0  0  0  0  0  0
   28.5399   -1.9150   26.9137 C   0  0  0  0  0  0
   27.2543   -2.4237   26.8246 C   0  0  0  0  0  0
   26.5339   -2.7643   27.9525 C   0  0  0  0  0  0
   25.2476   -3.2725   27.7628 O   0  0  0  0  0  0
   27.1215   -2.6833   29.1979 C   0  0  0  0  0  0
   28.4173   -2.1877   29.2760 C   0  0  0  0  0  0
   32.8154   -1.0605   27.5913 C   0  0  0  0  0  0
   31.5931   -1.8245   27.3967 C   0  0  0  0  0  0
   31.5262   -2.9110   26.5453 C   0  0  0  0  0  0
   31.0441   -3.9741   26.9559 O   0  0  0  0  0  0
   32.0190   -2.8696   25.1642 C   0  0  0  0  0  0
   32.8920   -3.8326   24.6995 C   0  0  0  0  0  0
   33.3863   -3.8142   23.4096 C   0  0  0  0  0  0
   33.0113   -2.7718   22.5638 C   0  0  0  0  0  0
   32.1305   -1.8056   23.0162 C   0  0  0  0  0  0
   31.6291   -1.8634   24.3058 C   0  0  0  0  0  0
   33.3756   -2.5401   21.2703 O   0  0  0  0  0  0
   34.7458   -2.2501   21.0393 C   0  0  0  0  0  0
   35.5483   -3.5227   20.9850 C   0  0  0  0  0  0
   36.9539   -3.7055   20.6777 N   0  0  0  0  0  0
   37.2345   -3.1056   19.3576 C   0  0  0  0  0  0
   38.7301   -3.1006   18.9820 C   0  0  0  0  0  0
   39.1733   -4.5708   18.9096 C   0  0  0  0  0  0
   39.0192   -5.0809   20.3755 C   0  0  0  0  0  0
   37.5147   -5.0706   20.6978 C   0  0  0  0  0  0
   35.9467    2.3522   28.5366 H   0  0  0  0  0  0
   24.8255   -3.7482   28.4511 H   0  0  0  0  0  0
  1  2  2  0  0  0
  1 16  1  0  0  0
  2  3  1  0  0  0
  3  4  1  0  0  0
  3  5  2  0  0  0
  4 35  1  0  0  0
  5  6  1  0  0  0
  6  7  1  0  0  0
  6 16  2  0  0  0
  7  8  1  0  0  0
  8  9  1  0  0  0
  8 17  2  0  0  0
  9 10  2  0  0  0
  9 15  1  0  0  0
 10 11  1  0  0  0
 11 12  2  0  0  0
 12 13  1  0  0  0
 12 14  1  0  0  0
 13 36  1  0  0  0
 14 15  2  0  0  0
 16 17  1  0  0  0
 17 18  1  0  0  0
 18 19  2  0  0  0
 18 20  1  0  0  0
 20 21  2  0  0  0
 20 25  1  0  0  0
 21 22  1  0  0  0
 22 23  2  0  0  0
 23 24  1  0  0  0
 23 26  1  0  0  0
 24 25  2  0  0  0
 26 27  1  0  0  0
 27 28  1  0  0  0
 28 29  1  0  0  0
 29 30  1  0  0  0
 29 34  1  0  0  0
 30 31  1  0  0  0
 31 32  1  0  0  0
 32 33  1  0  0  0
 33 34  1  0  0  0
M  END
>  <CHROM.0>
-65.24014278,-60.56480275,-26.20129509

>  <CHROM.1>
143.10043966,121.21121041,161.69804347,-49.64979172,128.39630026,-65.28912887
81.60340542,175.11248790,-55.77523449,32.76920952,-2.18733156,25.22643674
-2.39680379,-0.30656325,-2.13525589

>  <FORMUL>
      RAL    C28 H27 N1 O4 S1

>  <HET>
 RAL  A 600      34

>  <HETNAM>
     RAL RALOXIFENE

>  <Name>
RAL.pdb

>  <RI>
0

>  <Rbt.Current_Directory>
/home/malgorzata/Desktop/rDOCK_IFD/Wyniki/6a_estrogen_receptor

>  <Rbt.Executable>
rbdock ($Id: //depot/dev/client3/rdock/2013.1/src/exe/rbdock.cxx#4 $)

>  <Rbt.Library>
libRbt.so (2013.1, Build901 2013/11/27)

>  <Rbt.Parameter_File>
/home/malgorzata/Desktop/rDock_2013.1_src/data/scripts/soft_docking.prm

>  <Rbt.Receptor>
cavity.prm

>  <SCORE>
-29.8594

>  <SCORE.INTER>
-30.1005

>  <SCORE.INTER.CONST>
1

>  <SCORE.INTER.POLAR>
-1.17584

>  <SCORE.INTER.REPUL>
0.830796

>  <SCORE.INTER.ROT>
7

>  <SCORE.INTER.VDW>
-42.6566

>  <SCORE.INTER.norm>
-0.88531

>  <SCORE.INTRA>
1.05624

>  <SCORE.INTRA.DIHEDRAL>
13.0834

>  <SCORE.INTRA.DIHEDRAL.0>
18.358

>  <SCORE.INTRA.POLAR>
0

>  <SCORE.INTRA.POLAR.0>
0

>  <SCORE.INTRA.REPUL>
0

>  <SCORE.INTRA.REPUL.0>
0

>  <SCORE.INTRA.VDW>
-1.56043

>  <SCORE.INTRA.VDW.0>
-1.94569

>  <SCORE.INTRA.norm>
0.0310658

>  <SCORE.RESTR>
0

>  <SCORE.RESTR.CAVITY>
0

>  <SCORE.RESTR.norm>
0

>  <SCORE.SYSTEM>
-0.81507

>  <SCORE.SYSTEM.CONST>
0

>  <SCORE.SYSTEM.DIHEDRAL>
0.801896

>  <SCORE.SYSTEM.VDW>
-1.21602

>  <SCORE.SYSTEM.norm>
-0.0239726

>  <SCORE.heavy>
34

>  <SCORE.norm>
-0.878216

$$$$
RAL.pdb
  rDOCK(R)          3D
libRbt.so/2013.1/901 2013/11/27
 36 40  0  0  0  0  0  0  0  0999 V2000
   33.4172   -1.5196   28.4357 C   0  0  0  0  0  0
   34.6321   -0.9949   28.7943 C   0  0  0  0  0  0
   34.7529    0.2119   29.4249 C   0  0  0  0  0  0
   36.0235    0.6109   29.7570 O   0  0  0  0  0  0
   33.5990    0.9398   29.7373 C   0  0  0  0  0  0
   32.3826    0.3950   29.4073 C   0  0  0  0  0  0
   30.8646    1.0209   29.5951 S   0  0  0  0  0  0
   29.9935   -0.2695   28.9427 C   0  0  0  0  0  0
   28.5151   -0.2562   28.7530 C   0  0  0  0  0  0
   27.8133   -1.1598   29.5271 C   0  0  0  0  0  0
   26.4293   -1.1421   29.4659 C   0  0  0  0  0  0
   25.7557   -0.2766   28.6267 C   0  0  0  0  0  0
   24.3607   -0.3293   28.6366 O   0  0  0  0  0  0
   26.4560    0.6556   27.8895 C   0  0  0  0  0  0
   27.8431    0.6415   27.9700 C   0  0  0  0  0  0
   32.2873   -0.8570   28.7354 C   0  0  0  0  0  0
   30.9091   -1.2209   28.4457 C   0  0  0  0  0  0
   30.5752   -2.3779   27.7680 C   0  0  0  0  0  0
   29.7406   -3.1486   28.2588 O   0  0  0  0  0  0
   31.1808   -2.7499   26.4846 C   0  0  0  0  0  0
   30.7515   -2.1677   25.3090 C   0  0  0  0  0  0
   31.2902   -2.5063   24.0828 C   0  0  0  0  0  0
   32.2778   -3.4886   24.0337 C   0  0  0  0  0  0
   32.7215   -4.0731   25.2064 C   0  0  0  0  0  0
   32.1829   -3.6952   26.4250 C   0  0  0  0  0  0
   32.9397   -3.9896   22.9519 O   0  0  0  0  0  0
   32.9542   -3.1800   21.7859 C   0  0  0  0  0  0
   31.7146   -3.4203   20.9663 C   0  0  0  0  0  0
   31.3924   -2.9461   19.6341 N   0  0  0  0  0  0
   30.0399   -2.3531   19.6540 C   0  0  0  0  0  0
   29.6388   -1.6745   18.3288 C   0  0  0  0  0  0
   29.6307   -2.7731   17.2535 C   0  0  0  0  0  0
   31.1221   -3.2205   17.1642 C   0  0  0  0  0  0
   31.4695   -3.8925   18.5041 C   0  0  0  0  0  0
   36.6588   -0.0235   30.0251 H   0  0  0  0  0  0
   23.8647    0.4323   28.8650 H   0  0  0  0  0  0
  1  2  2  0  0  0
  1 16  1  0  0  0
  2  3  1  0  0  0
  3  4  1  0  0  0
  3  5  2  0  0  0
  4 35  1  0  0  0
  5  6  1  0  0  0
  6  7  1  0  0  0
  6 16  2  0  0  0
  7  8  1  0  0  0
  8  9  1  0  0  0
  8 17  2  0  0  0
  9 10  2  0  0  0
  9 15  1  0  0  0
 10 11  1  0  0  0
 11 12  2  0  0  0
 12 13  1  0  0  0
 12 14  1  0  0  0
 13 36  1  0  0  0
 14 15  2  0  0  0
 16 17  1  0  0  0
 17 18  1  0  0  0
 18 19  2  0  0  0
 18 20  1  0  0  0
 20 21  2  0  0  0
 20 25  1  0  0  0
 21 22  1  0  0  0
 22 23  2  0  0  0
 23 24  1  0  0  0
 23 26  1  0  0  0
 24 25  2  0  0  0
 26 27  1  0  0  0
 27 28  1  0  0  0
 28 29  1  0  0  0
 29 30  1  0  0  0
 29 34  1  0  0  0
 30 31  1  0  0  0
 31 32  1  0  0  0
 32 33  1  0  0  0
 33 34  1  0  0  0
M  END
>  <CHROM.0>
132.67590825,-60.56480275,-122.37741538

>  <CHROM.1>
-35.33589285,-114.24223920,120.43249904,-51.50149039,-79.13090225,21.04830440
-85.58405719,-171.40027635,-130.73452647,30.81398459,-1.54551637,25.81326873
-1.64188777,0.09358247,-1.85782720

>  <FORMUL>
      RAL    C28 H27 N1 O4 S1

>  <HET>
 RAL  A 600      34

>  <HETNAM>
     RAL RALOXIFENE

>  <Name>
RAL.pdb

>  <RI>
0

>  <Rbt.Current_Directory>
/home/malgorzata/Desktop/rDOCK_IFD/Wyniki/6a_estrogen_receptor

>  <Rbt.Executable>
rbdock ($Id: //depot/dev/client3/rdock/2013.1/src/exe/rbdock.cxx#4 $)

>  <Rbt.Library>
libRbt.so (2013.1, Build901 2013/11/27)

>  <Rbt.Parameter_File>
/home/malgorzata/Desktop/rDock_2013.1_src/data/scripts/soft_docking.prm

>  <Rbt.Receptor>
cavity.prm

>  <SCORE>
-35.7477

>  <SCORE.INTER>
-38.3318

>  <SCORE.INTER.CONST>
1

>  <SCORE.INTER.POLAR>
-1.99059

>  <SCORE.INTER.REPUL>
0.036046

>  <SCORE.INTER.ROT>
7

>  <SCORE.INTER.VDW>
-44.144

>  <SCORE.INTER.norm>
-1.12741

>  <SCORE.INTRA>
3.11502

>  <SCORE.INTRA.DIHEDRAL>
22.7554

>  <SCORE.INTRA.DIHEDRAL.0>
18.358

>  <SCORE.INTRA.POLAR>
0

>  <SCORE.INTRA.POLAR.0>
0

>  <SCORE.INTRA.REPUL>
0

>  <SCORE.INTRA.REPUL.0>
0

>  <SCORE.INTRA.VDW>
-1.43605

>  <SCORE.INTRA.VDW.0>
-1.94569

>  <SCORE.INTRA.norm>
0.0916183

>  <SCORE.RESTR>
0

>  <SCORE.RESTR.CAVITY>
0

>  <SCORE.RESTR.norm>
0

>  <SCORE.SYSTEM>
-0.530912

>  <SCORE.SYSTEM.CONST>
0

>  <SCORE.SYSTEM.DIHEDRAL>
0.804009

>  <SCORE.SYSTEM.VDW>
-0.932916

>  <SCORE.SYSTEM.norm>
-0.0156151

>  <SCORE.heavy>
34

>  <SCORE.norm>
-1.0514

$$$$
