OHT.pdb
  rDOCK(R)          3D
libRbt.so/2013.1/901 2013/11/27
 30 32  0  0  0  0  0  0  0  0999 V2000
   64.6851   36.0020   69.9354 C   0  0  0  0  0  0
   65.4579   36.0018   71.2258 C   0  0  0  0  0  0
   66.8713   35.4878   71.0469 C   0  0  0  0  0  0
   67.8470   36.5449   70.6407 C   0  0  0  0  0  0
   68.4699   37.3598   71.6097 C   0  0  0  0  0  0
   69.4168   38.3127   71.2328 C   0  0  0  0  0  0
   69.7649   38.4844   69.9074 C   0  0  0  0  0  0
   69.1669   37.7000   68.9501 C   0  0  0  0  0  0
   68.2172   36.7393   69.3155 C   0  0  0  0  0  0
   67.2098   34.1792   71.2412 C   0  0  0  0  0  0
   67.1619   33.1290   70.1585 C   0  0  0  0  0  0
   66.2299   32.0455   70.2003 C   0  0  0  0  0  0
   66.2419   31.0544   69.2084 C   0  0  0  0  0  0
   67.1843   31.1367   68.1659 C   0  0  0  0  0  0
   67.1893   30.1508   67.2249 O   0  0  0  0  0  0
   68.1084   32.2049   68.1127 C   0  0  0  0  0  0
   68.0808   33.1759   69.1058 C   0  0  0  0  0  0
   67.6419   33.6618   72.5430 C   0  0  0  0  0  0
   68.9752   33.3512   72.7997 C   0  0  0  0  0  0
   69.4003   32.8915   74.0142 C   0  0  0  0  0  0
   68.4828   32.7256   75.0392 C   0  0  0  0  0  0
   68.8288   32.3067   76.2920 O   0  0  0  0  0  0
   69.9399   32.8995   76.9575 C   0  0  0  0  0  0
   70.0391   32.2321   78.3025 C   0  0  0  0  0  0
   69.1559   31.1087   78.4564 N   0  0  0  0  0  0
   69.8864   29.8405   78.4437 C   0  0  0  0  0  0
   68.4462   31.2138   79.7365 C   0  0  0  0  0  0
   67.1280   33.0263   74.8155 C   0  0  0  0  0  0
   66.7289   33.4845   73.5913 C   0  0  0  0  0  0
   67.9435   29.6041   67.1230 H   0  0  0  0  0  0
  1  2  1  0  0  0
  2  3  1  0  0  0
  3  4  1  0  0  0
  3 10  1  0  0  0
  4  5  2  0  0  0
  4  9  1  0  0  0
  5  6  1  0  0  0
  6  7  2  0  0  0
  7  8  1  0  0  0
  8  9  2  0  0  0
 10 11  1  0  0  0
 10 18  1  0  0  0
 11 12  2  0  0  0
 11 17  1  0  0  0
 12 13  1  0  0  0
 13 14  2  0  0  0
 14 15  1  0  0  0
 14 16  1  0  0  0
 15 30  1  0  0  0
 16 17  2  0  0  0
 18 19  2  0  0  0
 18 29  1  0  0  0
 19 20  1  0  0  0
 20 21  2  0  0  0
 21 22  1  0  0  0
 21 28  1  0  0  0
 22 23  1  0  0  0
 23 24  1  0  0  0
 24 25  1  0  0  0
 25 26  1  0  0  0
 25 27  1  0  0  0
 28 29  2  0  0  0
M  END
>  <CHROM.0>
117.05725403,-60.04947747,138.46714080,147.78973165

>  <CHROM.1>
86.64704930,84.92092102,89.23788056,-112.95215492,-105.77956090,-117.23576720
47.09147282,179.40703163,8.18401063,107.85778571,68.00446421,33.66601505
72.44217945,-2.26455339,1.27933302,2.60401592

>  <FORMUL>
      OHT    C26 H29 N1 O2

>  <HET>
 OHT  A 600      29

>  <HETNAM>
     OHT 4-HYDROXYTAMOXIFEN

>  <Name>
OHT.pdb

>  <RI>
0

>  <Rbt.Current_Directory>
/home/malgorzata/Desktop/rDOCK_IFD/Wyniki/5c_estrogen_receptor

>  <Rbt.Executable>
rbdock ($Id: //depot/dev/client3/rdock/2013.1/src/exe/rbdock.cxx#4 $)

>  <Rbt.Library>
libRbt.so (2013.1, Build901 2013/11/27)

>  <Rbt.Parameter_File>
/home/malgorzata/Desktop/rDock_2013.1_src/data/scripts/soft_docking.prm

>  <Rbt.Receptor>
cavity.prm

>  <SCORE>
-83.7553

>  <SCORE.INTER>
-20.1947

>  <SCORE.INTER.CONST>
1

>  <SCORE.INTER.POLAR>
0

>  <SCORE.INTER.REPUL>
0

>  <SCORE.INTER.ROT>
9

>  <SCORE.INTER.VDW>
-34.5947

>  <SCORE.INTER.norm>
-0.69637

>  <SCORE.INTRA>
-2.88543

>  <SCORE.INTRA.DIHEDRAL>
6.77937

>  <SCORE.INTRA.DIHEDRAL.0>
14.7815

>  <SCORE.INTRA.POLAR>
0

>  <SCORE.INTRA.POLAR.0>
0

>  <SCORE.INTRA.REPUL>
0

>  <SCORE.INTRA.REPUL.0>
0

>  <SCORE.INTRA.VDW>
-4.24131

>  <SCORE.INTRA.VDW.0>
-0.0652974

>  <SCORE.INTRA.norm>
-0.0994976

>  <SCORE.RESTR>
0.671875

>  <SCORE.RESTR.CAVITY>
0.671875

>  <SCORE.RESTR.norm>
0.0231681

>  <SCORE.SYSTEM>
-61.347

>  <SCORE.SYSTEM.CONST>
0

>  <SCORE.SYSTEM.DIHEDRAL>
2.29035

>  <SCORE.SYSTEM.POLAR>
-0.228311

>  <SCORE.SYSTEM.REPUL>
0.111593

>  <SCORE.SYSTEM.VDW>
-62.2738

>  <SCORE.SYSTEM.norm>
-2.11541

>  <SCORE.heavy>
29

>  <SCORE.norm>
-2.88811

$$$$
OHT.pdb
  rDOCK(R)          3D
libRbt.so/2013.1/901 2013/11/27
 30 32  0  0  0  0  0  0  0  0999 V2000
   68.5987   32.2175   68.0857 C   0  0  0  0  0  0
   68.9224   31.9571   69.5312 C   0  0  0  0  0  0
   67.7703   32.3103   70.4488 C   0  0  0  0  0  0
   66.7125   31.2562   70.5162 C   0  0  0  0  0  0
   66.5374   30.4863   71.6858 C   0  0  0  0  0  0
   65.5180   29.5369   71.7643 C   0  0  0  0  0  0
   64.6600   29.3249   70.7031 C   0  0  0  0  0  0
   64.8171   30.0650   69.5555 C   0  0  0  0  0  0
   65.8344   31.0217   69.4651 C   0  0  0  0  0  0
   67.7145   33.4845   71.1434 C   0  0  0  0  0  0
   67.4750   34.8296   70.5025 C   0  0  0  0  0  0
   68.1393   35.2194   69.2979 C   0  0  0  0  0  0
   67.9383   36.4954   68.7521 C   0  0  0  0  0  0
   67.0721   37.3932   69.4043 C   0  0  0  0  0  0
   66.9086   38.6344   68.8656 O   0  0  0  0  0  0
   66.4078   37.0177   70.5941 C   0  0  0  0  0  0
   66.6215   35.7494   71.1191 C   0  0  0  0  0  0
   67.9013   33.5506   72.5960 C   0  0  0  0  0  0
   68.9284   32.8580   73.2328 C   0  0  0  0  0  0
   69.1330   32.9273   74.5821 C   0  0  0  0  0  0
   68.2973   33.7139   75.3585 C   0  0  0  0  0  0
   68.4542   33.8675   76.7062 O   0  0  0  0  0  0
   67.7732   34.9181   77.3855 C   0  0  0  0  0  0
   68.4540   35.0784   78.7178 C   0  0  0  0  0  0
   69.0304   33.8621   79.2220 N   0  0  0  0  0  0
   70.4866   33.9590   79.3330 C   0  0  0  0  0  0
   68.4888   33.5782   80.5559 C   0  0  0  0  0  0
   67.2482   34.4248   74.7504 C   0  0  0  0  0  0
   67.0651   34.3383   73.3988 C   0  0  0  0  0  0
   67.3656   38.8689   68.0819 H   0  0  0  0  0  0
  1  2  1  0  0  0
  2  3  1  0  0  0
  3  4  1  0  0  0
  3 10  1  0  0  0
  4  5  2  0  0  0
  4  9  1  0  0  0
  5  6  1  0  0  0
  6  7  2  0  0  0
  7  8  1  0  0  0
  8  9  2  0  0  0
 10 11  1  0  0  0
 10 18  1  0  0  0
 11 12  2  0  0  0
 11 17  1  0  0  0
 12 13  1  0  0  0
 13 14  2  0  0  0
 14 15  1  0  0  0
 14 16  1  0  0  0
 15 30  1  0  0  0
 16 17  2  0  0  0
 18 19  2  0  0  0
 18 29  1  0  0  0
 19 20  1  0  0  0
 20 21  2  0  0  0
 21 22  1  0  0  0
 21 28  1  0  0  0
 22 23  1  0  0  0
 23 24  1  0  0  0
 24 25  1  0  0  0
 25 26  1  0  0  0
 25 27  1  0  0  0
 28 29  2  0  0  0
M  END
>  <CHROM.0>
-25.37667010,-60.70203105,-5.51709139,-46.77855438

>  <CHROM.1>
80.60133021,109.63028591,70.85414146,-44.12150468,45.05428809,0.08669688
165.19731256,-163.31842531,-29.65089759,116.21478140,67.58660276,33.63452379
72.75545342,2.44297633,-1.30129254,-0.77998965

>  <FORMUL>
      OHT    C26 H29 N1 O2

>  <HET>
 OHT  A 600      29

>  <HETNAM>
     OHT 4-HYDROXYTAMOXIFEN

>  <Name>
OHT.pdb

>  <RI>
0

>  <Rbt.Current_Directory>
/home/malgorzata/Desktop/rDOCK_IFD/Wyniki/5c_estrogen_receptor

>  <Rbt.Executable>
rbdock ($Id: //depot/dev/client3/rdock/2013.1/src/exe/rbdock.cxx#4 $)

>  <Rbt.Library>
libRbt.so (2013.1, Build901 2013/11/27)

>  <Rbt.Parameter_File>
/home/malgorzata/Desktop/rDock_2013.1_src/data/scripts/soft_docking.prm

>  <Rbt.Receptor>
cavity.prm

>  <SCORE>
-77.0149

>  <SCORE.INTER>
-18.0863

>  <SCORE.INTER.CONST>
1

>  <SCORE.INTER.POLAR>
-0.0927172

>  <SCORE.INTER.REPUL>
0

>  <SCORE.INTER.ROT>
9

>  <SCORE.INTER.VDW>
-32.1711

>  <SCORE.INTER.norm>
-0.623665

>  <SCORE.INTRA>
1.23237

>  <SCORE.INTRA.DIHEDRAL>
-0.208106

>  <SCORE.INTRA.DIHEDRAL.0>
14.7815

>  <SCORE.INTRA.POLAR>
0

>  <SCORE.INTRA.POLAR.0>
0

>  <SCORE.INTRA.REPUL>
0

>  <SCORE.INTRA.REPUL.0>
0

>  <SCORE.INTRA.VDW>
1.27399

>  <SCORE.INTRA.VDW.0>
-0.0652974

>  <SCORE.INTRA.norm>
0.0424955

>  <SCORE.RESTR>
0.526118

>  <SCORE.RESTR.CAVITY>
0.526118

>  <SCORE.RESTR.norm>
0.018142

>  <SCORE.SYSTEM>
-60.6871

>  <SCORE.SYSTEM.CONST>
0

>  <SCORE.SYSTEM.DIHEDRAL>
3.50727

>  <SCORE.SYSTEM.POLAR>
-0.179534

>  <SCORE.SYSTEM.REPUL>
0.133602

>  <SCORE.SYSTEM.VDW>
-62.4983

>  <SCORE.SYSTEM.norm>
-2.09266

>  <SCORE.heavy>
29

>  <SCORE.norm>
-2.65569

$$$$
OHT.pdb
  rDOCK(R)          3D
libRbt.so/2013.1/901 2013/11/27
 30 32  0  0  0  0  0  0  0  0999 V2000
   68.1856   35.7016   81.6457 C   0  0  0  0  0  0
   67.2967   36.0825   80.4938 C   0  0  0  0  0  0
   68.0623   36.1924   79.1915 C   0  0  0  0  0  0
   68.6159   37.5570   78.9346 C   0  0  0  0  0  0
   69.8027   37.7235   78.1897 C   0  0  0  0  0  0
   70.2913   39.0000   77.9093 C   0  0  0  0  0  0
   69.6307   40.1282   78.3543 C   0  0  0  0  0  0
   68.4738   39.9844   79.0826 C   0  0  0  0  0  0
   67.9724   38.7095   79.3686 C   0  0  0  0  0  0
   68.2243   35.1369   78.3404 C   0  0  0  0  0  0
   68.2444   33.6947   78.7844 C   0  0  0  0  0  0
   67.4415   33.2299   79.8723 C   0  0  0  0  0  0
   67.5186   31.8960   80.2980 C   0  0  0  0  0  0
   68.3979   31.0146   79.6410 C   0  0  0  0  0  0
   68.4698   29.7284   80.0859 O   0  0  0  0  0  0
   69.1942   31.4623   78.5624 C   0  0  0  0  0  0
   69.1038   32.7879   78.1569 C   0  0  0  0  0  0
   68.4130   35.3101   76.8969 C   0  0  0  0  0  0
   67.3665   35.1271   75.9962 C   0  0  0  0  0  0
   67.5174   35.3082   74.6502 C   0  0  0  0  0  0
   68.7509   35.6905   74.1482 C   0  0  0  0  0  0
   68.9778   35.9281   72.8228 O   0  0  0  0  0  0
   69.4203   34.8707   71.9772 C   0  0  0  0  0  0
   69.5823   35.4612   70.6026 C   0  0  0  0  0  0
   68.4996   36.3221   70.2125 N   0  0  0  0  0  0
   68.9864   37.5848   69.6551 C   0  0  0  0  0  0
   67.6860   35.6552   69.1895 C   0  0  0  0  0  0
   69.8309   35.8816   75.0274 C   0  0  0  0  0  0
   69.6534   35.6938   76.3695 C   0  0  0  0  0  0
   67.7871   29.3802   80.6250 H   0  0  0  0  0  0
  1  2  1  0  0  0
  2  3  1  0  0  0
  3  4  1  0  0  0
  3 10  1  0  0  0
  4  5  2  0  0  0
  4  9  1  0  0  0
  5  6  1  0  0  0
  6  7  2  0  0  0
  7  8  1  0  0  0
  8  9  2  0  0  0
 10 11  1  0  0  0
 10 18  1  0  0  0
 11 12  2  0  0  0
 11 17  1  0  0  0
 12 13  1  0  0  0
 13 14  2  0  0  0
 14 15  1  0  0  0
 14 16  1  0  0  0
 15 30  1  0  0  0
 16 17  2  0  0  0
 18 19  2  0  0  0
 18 29  1  0  0  0
 19 20  1  0  0  0
 20 21  2  0  0  0
 21 22  1  0  0  0
 21 28  1  0  0  0
 22 23  1  0  0  0
 23 24  1  0  0  0
 24 25  1  0  0  0
 25 26  1  0  0  0
 25 27  1  0  0  0
 28 29  2  0  0  0
M  END
>  <CHROM.0>
-0.29804996,-66.08232405,63.46285720,17.90714086

>  <CHROM.1>
-89.46986266,150.08889039,-28.20829692,34.30144014,-100.71268336,17.89445991
-91.08617394,-179.56600199,-43.95985944,132.39514117,68.60447236,35.44744284
76.61467060,-2.26627986,-1.47547768,-2.02514851

>  <FORMUL>
      OHT    C26 H29 N1 O2

>  <HET>
 OHT  A 600      29

>  <HETNAM>
     OHT 4-HYDROXYTAMOXIFEN

>  <Name>
OHT.pdb

>  <RI>
0

>  <Rbt.Current_Directory>
/home/malgorzata/Desktop/rDOCK_IFD/Wyniki/5c_estrogen_receptor

>  <Rbt.Executable>
rbdock ($Id: //depot/dev/client3/rdock/2013.1/src/exe/rbdock.cxx#4 $)

>  <Rbt.Library>
libRbt.so (2013.1, Build901 2013/11/27)

>  <Rbt.Parameter_File>
/home/malgorzata/Desktop/rDock_2013.1_src/data/scripts/soft_docking.prm

>  <Rbt.Receptor>
cavity.prm

>  <SCORE>
-73.1871

>  <SCORE.INTER>
-16.9693

>  <SCORE.INTER.CONST>
1

>  <SCORE.INTER.POLAR>
-0.816689

>  <SCORE.INTER.REPUL>
0.0183194

>  <SCORE.INTER.ROT>
9

>  <SCORE.INTER.VDW>
-28.6842

>  <SCORE.INTER.norm>
-0.58515

>  <SCORE.INTRA>
0.475448

>  <SCORE.INTRA.DIHEDRAL>
1.08766

>  <SCORE.INTRA.DIHEDRAL.0>
14.7815

>  <SCORE.INTRA.POLAR>
0

>  <SCORE.INTRA.POLAR.0>
0

>  <SCORE.INTRA.REPUL>
0

>  <SCORE.INTRA.REPUL.0>
0

>  <SCORE.INTRA.VDW>
0.257916

>  <SCORE.INTRA.VDW.0>
-0.0652974

>  <SCORE.INTRA.norm>
0.0163948

>  <SCORE.RESTR>
0.384433

>  <SCORE.RESTR.CAVITY>
0.384433

>  <SCORE.RESTR.norm>
0.0132563

>  <SCORE.SYSTEM>
-57.0776

>  <SCORE.SYSTEM.CONST>
0

>  <SCORE.SYSTEM.DIHEDRAL>
1.56447

>  <SCORE.SYSTEM.POLAR>
-0.0927859

>  <SCORE.SYSTEM.REPUL>
0.116152

>  <SCORE.SYSTEM.VDW>
-58.1252

>  <SCORE.SYSTEM.norm>
-1.96819

>  <SCORE.heavy>
29

>  <SCORE.norm>
-2.52369

$$$$
OHT.pdb
  rDOCK(R)          3D
libRbt.so/2013.1/901 2013/11/27
 30 32  0  0  0  0  0  0  0  0999 V2000
   66.4551   36.1442   83.2224 C   0  0  0  0  0  0
   66.2848   35.6383   81.8163 C   0  0  0  0  0  0
   67.3602   36.1597   80.8858 C   0  0  0  0  0  0
   67.2166   37.6108   80.5568 C   0  0  0  0  0  0
   66.0119   38.1108   80.0185 C   0  0  0  0  0  0
   65.8628   39.4734   79.7580 C   0  0  0  0  0  0
   66.8868   40.3633   80.0161 C   0  0  0  0  0  0
   68.0678   39.8933   80.5393 C   0  0  0  0  0  0
   68.2290   38.5291   80.8069 C   0  0  0  0  0  0
   68.3614   35.3685   80.3998 C   0  0  0  0  0  0
   69.6165   35.0343   81.1681 C   0  0  0  0  0  0
   69.7401   33.8244   81.9200 C   0  0  0  0  0  0
   70.8975   33.5631   82.6675 C   0  0  0  0  0  0
   71.9415   34.5073   82.6705 C   0  0  0  0  0  0
   73.0476   34.2399   83.4205 O   0  0  0  0  0  0
   71.8316   35.7054   81.9285 C   0  0  0  0  0  0
   70.6762   35.9459   81.1956 C   0  0  0  0  0  0
   68.3168   34.7748   79.0601 C   0  0  0  0  0  0
   69.1244   33.6945   78.7125 C   0  0  0  0  0  0
   69.0788   33.1125   77.4771 C   0  0  0  0  0  0
   68.1996   33.6027   76.5249 C   0  0  0  0  0  0
   68.0647   33.0572   75.2804 O   0  0  0  0  0  0
   68.8339   33.5657   74.1947 C   0  0  0  0  0  0
   69.4690   32.3765   73.5261 C   0  0  0  0  0  0
   68.7637   31.9260   72.3577 N   0  0  0  0  0  0
   69.6414   31.8589   71.1883 C   0  0  0  0  0  0
   68.2211   30.5840   72.5986 C   0  0  0  0  0  0
   67.3713   34.6940   76.8394 C   0  0  0  0  0  0
   67.4365   35.2581   78.0825 C   0  0  0  0  0  0
   73.5022   33.4277   83.3120 H   0  0  0  0  0  0
  1  2  1  0  0  0
  2  3  1  0  0  0
  3  4  1  0  0  0
  3 10  1  0  0  0
  4  5  2  0  0  0
  4  9  1  0  0  0
  5  6  1  0  0  0
  6  7  2  0  0  0
  7  8  1  0  0  0
  8  9  2  0  0  0
 10 11  1  0  0  0
 10 18  1  0  0  0
 11 12  2  0  0  0
 11 17  1  0  0  0
 12 13  1  0  0  0
 13 14  2  0  0  0
 14 15  1  0  0  0
 14 16  1  0  0  0
 15 30  1  0  0  0
 16 17  2  0  0  0
 18 19  2  0  0  0
 18 29  1  0  0  0
 19 20  1  0  0  0
 20 21  2  0  0  0
 21 22  1  0  0  0
 21 28  1  0  0  0
 22 23  1  0  0  0
 23 24  1  0  0  0
 24 25  1  0  0  0
 25 26  1  0  0  0
 25 27  1  0  0  0
 28 29  2  0  0  0
M  END
>  <CHROM.0>
-55.72754586,-59.07092558,-91.59088021,125.94715367

>  <CHROM.1>
-72.03207932,-54.78285927,-81.84997435,95.93438370,-161.63456018,53.18531352
-92.71356310,130.27021073,98.41244365,125.63515582,68.68006474,35.04491836
78.84334619,1.57762824,-0.77736618,1.08079473

>  <FORMUL>
      OHT    C26 H29 N1 O2

>  <HET>
 OHT  A 600      29

>  <HETNAM>
     OHT 4-HYDROXYTAMOXIFEN

>  <Name>
OHT.pdb

>  <RI>
0

>  <Rbt.Current_Directory>
/home/malgorzata/Desktop/rDOCK_IFD/Wyniki/5c_estrogen_receptor

>  <Rbt.Executable>
rbdock ($Id: //depot/dev/client3/rdock/2013.1/src/exe/rbdock.cxx#4 $)

>  <Rbt.Library>
libRbt.so (2013.1, Build901 2013/11/27)

>  <Rbt.Parameter_File>
/home/malgorzata/Desktop/rDock_2013.1_src/data/scripts/soft_docking.prm

>  <Rbt.Receptor>
cavity.prm

>  <SCORE>
-69.3787

>  <SCORE.INTER>
-8.55692

>  <SCORE.INTER.CONST>
1

>  <SCORE.INTER.POLAR>
0

>  <SCORE.INTER.REPUL>
0

>  <SCORE.INTER.ROT>
9

>  <SCORE.INTER.VDW>
-22.9569

>  <SCORE.INTER.norm>
-0.295066

>  <SCORE.INTRA>
-0.682068

>  <SCORE.INTRA.DIHEDRAL>
14.4146

>  <SCORE.INTRA.DIHEDRAL.0>
14.7815

>  <SCORE.INTRA.POLAR>
0

>  <SCORE.INTRA.POLAR.0>
0

>  <SCORE.INTRA.REPUL>
0

>  <SCORE.INTRA.REPUL.0>
0

>  <SCORE.INTRA.VDW>
-3.56499

>  <SCORE.INTRA.VDW.0>
-0.0652974

>  <SCORE.INTRA.norm>
-0.0235196

>  <SCORE.RESTR>
0

>  <SCORE.RESTR.CAVITY>
0

>  <SCORE.RESTR.norm>
0

>  <SCORE.SYSTEM>
-60.1397

>  <SCORE.SYSTEM.CONST>
0

>  <SCORE.SYSTEM.DIHEDRAL>
4.07352

>  <SCORE.SYSTEM.POLAR>
-0.277019

>  <SCORE.SYSTEM.REPUL>
0.0728853

>  <SCORE.SYSTEM.VDW>
-61.599

>  <SCORE.SYSTEM.norm>
-2.07378

>  <SCORE.heavy>
29

>  <SCORE.norm>
-2.39237

$$$$
OHT.pdb
  rDOCK(R)          3D
libRbt.so/2013.1/901 2013/11/27
 30 32  0  0  0  0  0  0  0  0999 V2000
   71.1005   32.9742   71.0463 C   0  0  0  0  0  0
   69.8227   33.4052   70.3803 C   0  0  0  0  0  0
   68.7246   33.6966   71.3820 C   0  0  0  0  0  0
   67.8156   32.5362   71.6299 C   0  0  0  0  0  0
   68.0984   31.6061   72.6526 C   0  0  0  0  0  0
   67.2232   30.5515   72.9146 C   0  0  0  0  0  0
   66.0645   30.3896   72.1808 C   0  0  0  0  0  0
   65.7740   31.2856   71.1797 C   0  0  0  0  0  0
   66.6427   32.3488   70.9087 C   0  0  0  0  0  0
   68.5884   34.9095   71.9943 C   0  0  0  0  0  0
   68.8497   36.2297   71.3114 C   0  0  0  0  0  0
   70.1065   36.9017   71.4262 C   0  0  0  0  0  0
   70.3051   38.1528   70.8246 C   0  0  0  0  0  0
   69.2506   38.7435   70.1029 C   0  0  0  0  0  0
   69.4614   39.9687   69.5443 O   0  0  0  0  0  0
   68.0049   38.0870   69.9803 C   0  0  0  0  0  0
   67.8282   36.8488   70.5849 C   0  0  0  0  0  0
   68.1855   35.0433   73.3975 C   0  0  0  0  0  0
   67.3125   36.0452   73.8146 C   0  0  0  0  0  0
   66.9065   36.1702   75.1133 C   0  0  0  0  0  0
   67.3702   35.2726   76.0616 C   0  0  0  0  0  0
   66.9862   35.3039   77.3716 O   0  0  0  0  0  0
   67.9008   35.7475   78.3695 C   0  0  0  0  0  0
   67.3558   37.0445   78.9034 C   0  0  0  0  0  0
   68.1940   37.6578   79.8969 N   0  0  0  0  0  0
   69.2278   38.4970   79.2893 C   0  0  0  0  0  0
   67.3769   38.5038   80.7744 C   0  0  0  0  0  0
   68.2551   34.2502   75.6774 C   0  0  0  0  0  0
   68.6457   34.1472   74.3718 C   0  0  0  0  0  0
   70.3061   40.3703   69.6008 H   0  0  0  0  0  0
  1  2  1  0  0  0
  2  3  1  0  0  0
  3  4  1  0  0  0
  3 10  1  0  0  0
  4  5  2  0  0  0
  4  9  1  0  0  0
  5  6  1  0  0  0
  6  7  2  0  0  0
  7  8  1  0  0  0
  8  9  2  0  0  0
 10 11  1  0  0  0
 10 18  1  0  0  0
 11 12  2  0  0  0
 11 17  1  0  0  0
 12 13  1  0  0  0
 13 14  2  0  0  0
 14 15  1  0  0  0
 14 16  1  0  0  0
 15 30  1  0  0  0
 16 17  2  0  0  0
 18 19  2  0  0  0
 18 29  1  0  0  0
 19 20  1  0  0  0
 20 21  2  0  0  0
 21 22  1  0  0  0
 21 28  1  0  0  0
 22 23  1  0  0  0
 23 24  1  0  0  0
 24 25  1  0  0  0
 25 26  1  0  0  0
 25 27  1  0  0  0
 28 29  2  0  0  0
M  END
>  <CHROM.0>
137.89969972,-61.23278754,63.32105158,-146.46264647

>  <CHROM.1>
-94.67364915,90.19523254,37.17847981,-95.87587269,-140.47664464,3.77393258
-107.61349182,112.66065846,-177.86883192,86.12970791,68.20779593,35.32713638
73.64481857,1.34173651,-1.26069236,-2.14373291

>  <FORMUL>
      OHT    C26 H29 N1 O2

>  <HET>
 OHT  A 600      29

>  <HETNAM>
     OHT 4-HYDROXYTAMOXIFEN

>  <Name>
OHT.pdb

>  <RI>
0

>  <Rbt.Current_Directory>
/home/malgorzata/Desktop/rDOCK_IFD/Wyniki/5c_estrogen_receptor

>  <Rbt.Executable>
rbdock ($Id: //depot/dev/client3/rdock/2013.1/src/exe/rbdock.cxx#4 $)

>  <Rbt.Library>
libRbt.so (2013.1, Build901 2013/11/27)

>  <Rbt.Parameter_File>
/home/malgorzata/Desktop/rDock_2013.1_src/data/scripts/soft_docking.prm

>  <Rbt.Receptor>
cavity.prm

>  <SCORE>
-81.053

>  <SCORE.INTER>
-18.2506

>  <SCORE.INTER.CONST>
1

>  <SCORE.INTER.POLAR>
-1.4007

>  <SCORE.INTER.REPUL>
0.150803

>  <SCORE.INTER.ROT>
9

>  <SCORE.INTER.VDW>
-28.6422

>  <SCORE.INTER.norm>
-0.629331

>  <SCORE.INTRA>
-2.6708

>  <SCORE.INTRA.DIHEDRAL>
4.65186

>  <SCORE.INTRA.DIHEDRAL.0>
14.7815

>  <SCORE.INTRA.POLAR>
0

>  <SCORE.INTRA.POLAR.0>
0

>  <SCORE.INTRA.REPUL>
0

>  <SCORE.INTRA.REPUL.0>
0

>  <SCORE.INTRA.VDW>
-3.60117

>  <SCORE.INTRA.VDW.0>
-0.0652974

>  <SCORE.INTRA.norm>
-0.0920964

>  <SCORE.RESTR>
0.573747

>  <SCORE.RESTR.CAVITY>
0.573747

>  <SCORE.RESTR.norm>
0.0197844

>  <SCORE.SYSTEM>
-60.7053

>  <SCORE.SYSTEM.CONST>
0

>  <SCORE.SYSTEM.DIHEDRAL>
2.39106

>  <SCORE.SYSTEM.POLAR>
-0.143733

>  <SCORE.SYSTEM.REPUL>
0.148548

>  <SCORE.SYSTEM.VDW>
-62.1549

>  <SCORE.SYSTEM.norm>
-2.09329

>  <SCORE.heavy>
29

>  <SCORE.norm>
-2.79493

$$$$
OHT.pdb
  rDOCK(R)          3D
libRbt.so/2013.1/901 2013/11/27
 30 32  0  0  0  0  0  0  0  0999 V2000
   65.9352   29.9794   72.5310 C   0  0  0  0  0  0
   65.4408   31.2705   71.9385 C   0  0  0  0  0  0
   66.5588   32.0793   71.3140 C   0  0  0  0  0  0
   66.6951   31.8753   69.8395 C   0  0  0  0  0  0
   66.4000   32.9201   68.9382 C   0  0  0  0  0  0
   66.5748   32.7435   67.5653 C   0  0  0  0  0  0
   67.0359   31.5458   67.0551 C   0  0  0  0  0  0
   67.3269   30.5168   67.9186 C   0  0  0  0  0  0
   67.1578   30.6822   69.2979 C   0  0  0  0  0  0
   67.3601   32.9128   72.0405 C   0  0  0  0  0  0
   67.8722   34.2388   71.5338 C   0  0  0  0  0  0
   67.0582   35.1090   70.7437 C   0  0  0  0  0  0
   67.5762   36.3115   70.2417 C   0  0  0  0  0  0
   68.9116   36.6558   70.5246 C   0  0  0  0  0  0
   69.3982   37.8198   70.0089 O   0  0  0  0  0  0
   69.7247   35.8047   71.3072 C   0  0  0  0  0  0
   69.1928   34.6173   71.7939 C   0  0  0  0  0  0
   67.8176   32.5845   73.3941 C   0  0  0  0  0  0
   69.1720   32.4897   73.7045 C   0  0  0  0  0  0
   69.6174   32.2092   74.9655 C   0  0  0  0  0  0
   68.6992   32.0119   75.9843 C   0  0  0  0  0  0
   69.0594   31.7641   77.2779 O   0  0  0  0  0  0
   69.3216   30.4289   77.6990 C   0  0  0  0  0  0
   70.4937   30.4991   78.6401 C   0  0  0  0  0  0
   71.6517   31.1348   78.0739 N   0  0  0  0  0  0
   71.6444   32.5796   78.3078 C   0  0  0  0  0  0
   72.8647   30.5796   78.6851 C   0  0  0  0  0  0
   67.3238   32.0970   75.7072 C   0  0  0  0  0  0
   66.9046   32.3788   74.4372 C   0  0  0  0  0  0
   68.8080   38.4969   69.7421 H   0  0  0  0  0  0
  1  2  1  0  0  0
  2  3  1  0  0  0
  3  4  1  0  0  0
  3 10  1  0  0  0
  4  5  2  0  0  0
  4  9  1  0  0  0
  5  6  1  0  0  0
  6  7  2  0  0  0
  7  8  1  0  0  0
  8  9  2  0  0  0
 10 11  1  0  0  0
 10 18  1  0  0  0
 11 12  2  0  0  0
 11 17  1  0  0  0
 12 13  1  0  0  0
 13 14  2  0  0  0
 14 15  1  0  0  0
 14 16  1  0  0  0
 15 30  1  0  0  0
 16 17  2  0  0  0
 18 19  2  0  0  0
 18 29  1  0  0  0
 19 20  1  0  0  0
 20 21  2  0  0  0
 21 22  1  0  0  0
 21 28  1  0  0  0
 22 23  1  0  0  0
 23 24  1  0  0  0
 24 25  1  0  0  0
 25 26  1  0  0  0
 25 27  1  0  0  0
 28 29  2  0  0  0
M  END
>  <CHROM.0>
-26.86940524,-61.20524346,4.04641556,107.93487740

>  <CHROM.1>
96.07811819,112.36722889,-142.88647261,38.78670970,120.62392869,20.84780030
-86.50275367,141.20049142,-55.51569398,89.57205847,68.36052501,32.67671712
72.91754574,2.24044136,-0.96836875,-0.74399822

>  <FORMUL>
      OHT    C26 H29 N1 O2

>  <HET>
 OHT  A 600      29

>  <HETNAM>
     OHT 4-HYDROXYTAMOXIFEN

>  <Name>
OHT.pdb

>  <RI>
0

>  <Rbt.Current_Directory>
/home/malgorzata/Desktop/rDOCK_IFD/Wyniki/5c_estrogen_receptor

>  <Rbt.Executable>
rbdock ($Id: //depot/dev/client3/rdock/2013.1/src/exe/rbdock.cxx#4 $)

>  <Rbt.Library>
libRbt.so (2013.1, Build901 2013/11/27)

>  <Rbt.Parameter_File>
/home/malgorzata/Desktop/rDock_2013.1_src/data/scripts/soft_docking.prm

>  <Rbt.Receptor>
cavity.prm

>  <SCORE>
-70.1473

>  <SCORE.INTER>
-10.8416

>  <SCORE.INTER.CONST>
1

>  <SCORE.INTER.POLAR>
-0.0552046

>  <SCORE.INTER.REPUL>
0.412391

>  <SCORE.INTER.ROT>
9

>  <SCORE.INTER.VDW>
-27.1158

>  <SCORE.INTER.norm>
-0.373848

>  <SCORE.INTRA>
-0.42735

>  <SCORE.INTRA.DIHEDRAL>
4.25976

>  <SCORE.INTRA.DIHEDRAL.0>
14.7815

>  <SCORE.INTRA.POLAR>
0

>  <SCORE.INTRA.POLAR.0>
0

>  <SCORE.INTRA.REPUL>
0

>  <SCORE.INTRA.REPUL.0>
0

>  <SCORE.INTRA.VDW>
-1.2793

>  <SCORE.INTRA.VDW.0>
-0.0652974

>  <SCORE.INTRA.norm>
-0.0147362

>  <SCORE.RESTR>
0.757751

>  <SCORE.RESTR.CAVITY>
0.757751

>  <SCORE.RESTR.norm>
0.0261293

>  <SCORE.SYSTEM>
-59.6361

>  <SCORE.SYSTEM.CONST>
0

>  <SCORE.SYSTEM.DIHEDRAL>
5.30263

>  <SCORE.SYSTEM.POLAR>
-0.145518

>  <SCORE.SYSTEM.REPUL>
0.147845

>  <SCORE.SYSTEM.VDW>
-62.5319

>  <SCORE.SYSTEM.norm>
-2.05642

>  <SCORE.heavy>
29

>  <SCORE.norm>
-2.41887

$$$$
OHT.pdb
  rDOCK(R)          3D
libRbt.so/2013.1/901 2013/11/27
 30 32  0  0  0  0  0  0  0  0999 V2000
   66.3301   36.2495   72.1218 C   0  0  0  0  0  0
   66.9940   34.9724   71.6852 C   0  0  0  0  0  0
   68.0536   34.5136   72.6655 C   0  0  0  0  0  0
   69.4314   34.9801   72.3212 C   0  0  0  0  0  0
   69.9074   36.2240   72.7874 C   0  0  0  0  0  0
   71.2105   36.6357   72.5062 C   0  0  0  0  0  0
   72.0631   35.8415   71.7649 C   0  0  0  0  0  0
   71.6155   34.6272   71.3016 C   0  0  0  0  0  0
   70.3113   34.2021   71.5788 C   0  0  0  0  0  0
   67.7647   33.7460   73.7572 C   0  0  0  0  0  0
   67.3557   32.2954   73.6803 C   0  0  0  0  0  0
   68.3082   31.2553   73.4453 C   0  0  0  0  0  0
   67.8939   29.9209   73.3261 C   0  0  0  0  0  0
   66.5250   29.6134   73.4408 C   0  0  0  0  0  0
   66.1448   28.3120   73.3014 O   0  0  0  0  0  0
   65.5748   30.6330   73.6762 C   0  0  0  0  0  0
   66.0057   31.9488   73.7898 C   0  0  0  0  0  0
   67.8097   34.2721   75.1249 C   0  0  0  0  0  0
   68.4399   33.5773   76.1545 C   0  0  0  0  0  0
   68.5134   34.0634   77.4295 C   0  0  0  0  0  0
   67.9468   35.2931   77.7236 C   0  0  0  0  0  0
   68.0071   35.8675   78.9609 O   0  0  0  0  0  0
   66.9046   36.6282   79.4455 C   0  0  0  0  0  0
   66.9273   36.5073   80.9452 C   0  0  0  0  0  0
   66.2835   37.5994   81.6225 N   0  0  0  0  0  0
   65.4279   37.1303   82.7134 C   0  0  0  0  0  0
   67.2998   38.4921   82.1912 C   0  0  0  0  0  0
   67.2998   36.0212   76.7100 C   0  0  0  0  0  0
   67.2402   35.5124   75.4430 C   0  0  0  0  0  0
   66.3008   27.8623   72.4943 H   0  0  0  0  0  0
  1  2  1  0  0  0
  2  3  1  0  0  0
  3  4  1  0  0  0
  3 10  1  0  0  0
  4  5  2  0  0  0
  4  9  1  0  0  0
  5  6  1  0  0  0
  6  7  2  0  0  0
  7  8  1  0  0  0
  8  9  2  0  0  0
 10 11  1  0  0  0
 10 18  1  0  0  0
 11 12  2  0  0  0
 11 17  1  0  0  0
 12 13  1  0  0  0
 13 14  2  0  0  0
 14 15  1  0  0  0
 14 16  1  0  0  0
 15 30  1  0  0  0
 16 17  2  0  0  0
 18 19  2  0  0  0
 18 29  1  0  0  0
 19 20  1  0  0  0
 20 21  2  0  0  0
 21 22  1  0  0  0
 21 28  1  0  0  0
 22 23  1  0  0  0
 23 24  1  0  0  0
 24 25  1  0  0  0
 25 26  1  0  0  0
 25 27  1  0  0  0
 28 29  2  0  0  0
M  END
>  <CHROM.0>
-50.74240998,-60.42119348,-140.65754897,-156.88051285

>  <CHROM.1>
-93.85291737,88.41334266,70.62201877,77.15166305,-133.45024477,-61.62323291
-144.39145326,151.19198575,155.44228672,135.92172474,67.86517743,34.40555501
75.33622841,-1.29130708,0.94495489,0.86490637

>  <FORMUL>
      OHT    C26 H29 N1 O2

>  <HET>
 OHT  A 600      29

>  <HETNAM>
     OHT 4-HYDROXYTAMOXIFEN

>  <Name>
OHT.pdb

>  <RI>
0

>  <Rbt.Current_Directory>
/home/malgorzata/Desktop/rDOCK_IFD/Wyniki/5c_estrogen_receptor

>  <Rbt.Executable>
rbdock ($Id: //depot/dev/client3/rdock/2013.1/src/exe/rbdock.cxx#4 $)

>  <Rbt.Library>
libRbt.so (2013.1, Build901 2013/11/27)

>  <Rbt.Parameter_File>
/home/malgorzata/Desktop/rDock_2013.1_src/data/scripts/soft_docking.prm

>  <Rbt.Receptor>
cavity.prm

>  <SCORE>
-77.2036

>  <SCORE.INTER>
-13.452

>  <SCORE.INTER.CONST>
1

>  <SCORE.INTER.POLAR>
-0.0258145

>  <SCORE.INTER.REPUL>
0.117247

>  <SCORE.INTER.ROT>
9

>  <SCORE.INTER.VDW>
-28.3505

>  <SCORE.INTER.norm>
-0.463863

>  <SCORE.INTRA>
-2.04303

>  <SCORE.INTRA.DIHEDRAL>
5.00789

>  <SCORE.INTRA.DIHEDRAL.0>
14.7815

>  <SCORE.INTRA.POLAR>
0

>  <SCORE.INTRA.POLAR.0>
0

>  <SCORE.INTRA.REPUL>
0

>  <SCORE.INTRA.REPUL.0>
0

>  <SCORE.INTRA.VDW>
-3.0446

>  <SCORE.INTRA.VDW.0>
-0.0652974

>  <SCORE.INTRA.norm>
-0.0704492

>  <SCORE.RESTR>
0.034922

>  <SCORE.RESTR.CAVITY>
0.034922

>  <SCORE.RESTR.norm>
0.00120421

>  <SCORE.SYSTEM>
-61.7434

>  <SCORE.SYSTEM.CONST>
0

>  <SCORE.SYSTEM.DIHEDRAL>
1.69345

>  <SCORE.SYSTEM.POLAR>
-0.199521

>  <SCORE.SYSTEM.REPUL>
0.124579

>  <SCORE.SYSTEM.VDW>
-62.5347

>  <SCORE.SYSTEM.norm>
-2.12908

>  <SCORE.heavy>
29

>  <SCORE.norm>
-2.66219

$$$$
OHT.pdb
  rDOCK(R)          3D
libRbt.so/2013.1/901 2013/11/27
 30 32  0  0  0  0  0  0  0  0999 V2000
   66.4444   35.4848   75.7109 C   0  0  0  0  0  0
   67.9107   35.4789   75.3760 C   0  0  0  0  0  0
   68.3680   34.1423   74.8297 C   0  0  0  0  0  0
   68.8007   33.1786   75.8873 C   0  0  0  0  0  0
   70.0838   33.2741   76.4666 C   0  0  0  0  0  0
   70.4678   32.4046   77.4879 C   0  0  0  0  0  0
   69.6071   31.4303   77.9539 C   0  0  0  0  0  0
   68.3538   31.3221   77.4000 C   0  0  0  0  0  0
   67.9560   32.1896   76.3765 C   0  0  0  0  0  0
   68.3796   33.8567   73.4945 C   0  0  0  0  0  0
   68.9224   34.7899   72.4401 C   0  0  0  0  0  0
   69.0201   34.4011   71.0676 C   0  0  0  0  0  0
   69.5771   35.2689   70.1173 C   0  0  0  0  0  0
   70.0412   36.5325   70.5290 C   0  0  0  0  0  0
   70.5967   37.3501   69.5907 O   0  0  0  0  0  0
   69.9470   36.9288   71.8825 C   0  0  0  0  0  0
   69.3931   36.0538   72.8085 C   0  0  0  0  0  0
   67.8426   32.6053   72.9514 C   0  0  0  0  0  0
   68.4696   31.9349   71.9039 C   0  0  0  0  0  0
   67.9977   30.7551   71.4014 C   0  0  0  0  0  0
   66.8552   30.1910   71.9459 C   0  0  0  0  0  0
   66.3383   28.9982   71.5283 O   0  0  0  0  0  0
   65.4825   28.9543   70.3904 C   0  0  0  0  0  0
   66.1671   29.7458   69.3092 C   0  0  0  0  0  0
   65.3064   30.6910   68.6523 N   0  0  0  0  0  0
   64.9641   31.8115   69.5294 C   0  0  0  0  0  0
   65.9827   31.2295   67.4666 C   0  0  0  0  0  0
   66.1942   30.8411   73.0024 C   0  0  0  0  0  0
   66.6869   32.0204   73.4866 C   0  0  0  0  0  0
   71.2539   37.9700   69.8393 H   0  0  0  0  0  0
  1  2  1  0  0  0
  2  3  1  0  0  0
  3  4  1  0  0  0
  3 10  1  0  0  0
  4  5  2  0  0  0
  4  9  1  0  0  0
  5  6  1  0  0  0
  6  7  2  0  0  0
  7  8  1  0  0  0
  8  9  2  0  0  0
 10 11  1  0  0  0
 10 18  1  0  0  0
 11 12  2  0  0  0
 11 17  1  0  0  0
 12 13  1  0  0  0
 13 14  2  0  0  0
 14 15  1  0  0  0
 14 16  1  0  0  0
 15 30  1  0  0  0
 16 17  2  0  0  0
 18 19  2  0  0  0
 18 29  1  0  0  0
 19 20  1  0  0  0
 20 21  2  0  0  0
 21 22  1  0  0  0
 21 28  1  0  0  0
 22 23  1  0  0  0
 23 24  1  0  0  0
 24 25  1  0  0  0
 25 26  1  0  0  0
 25 27  1  0  0  0
 28 29  2  0  0  0
M  END
>  <CHROM.0>
-86.94094939,-61.69249401,-58.84600407,-150.02807940

>  <CHROM.1>
-88.33956052,-79.92594850,45.99750699,174.46063347,-140.99982271,-150.84456843
-83.74182079,48.20554343,-132.25816622,70.58478237,67.96192905,32.88403514
72.70297957,0.64040941,1.05072432,1.93695152

>  <FORMUL>
      OHT    C26 H29 N1 O2

>  <HET>
 OHT  A 600      29

>  <HETNAM>
     OHT 4-HYDROXYTAMOXIFEN

>  <Name>
OHT.pdb

>  <RI>
0

>  <Rbt.Current_Directory>
/home/malgorzata/Desktop/rDOCK_IFD/Wyniki/5c_estrogen_receptor

>  <Rbt.Executable>
rbdock ($Id: //depot/dev/client3/rdock/2013.1/src/exe/rbdock.cxx#4 $)

>  <Rbt.Library>
libRbt.so (2013.1, Build901 2013/11/27)

>  <Rbt.Parameter_File>
/home/malgorzata/Desktop/rDock_2013.1_src/data/scripts/soft_docking.prm

>  <Rbt.Receptor>
cavity.prm

>  <SCORE>
-71.4268

>  <SCORE.INTER>
-14.7472

>  <SCORE.INTER.CONST>
1

>  <SCORE.INTER.POLAR>
-0.0179277

>  <SCORE.INTER.REPUL>
0.0759045

>  <SCORE.INTER.ROT>
9

>  <SCORE.INTER.VDW>
-29.4657

>  <SCORE.INTER.norm>
-0.508522

>  <SCORE.INTRA>
3.49129

>  <SCORE.INTRA.DIHEDRAL>
4.23625

>  <SCORE.INTRA.DIHEDRAL.0>
14.7815

>  <SCORE.INTRA.POLAR>
0

>  <SCORE.INTRA.POLAR.0>
0

>  <SCORE.INTRA.REPUL>
0

>  <SCORE.INTRA.REPUL.0>
0

>  <SCORE.INTRA.VDW>
2.64404

>  <SCORE.INTRA.VDW.0>
-0.0652974

>  <SCORE.INTRA.norm>
0.120389

>  <SCORE.RESTR>
0.360939

>  <SCORE.RESTR.CAVITY>
0.360939

>  <SCORE.RESTR.norm>
0.0124462

>  <SCORE.SYSTEM>
-60.5319

>  <SCORE.SYSTEM.CONST>
0

>  <SCORE.SYSTEM.DIHEDRAL>
2.12422

>  <SCORE.SYSTEM.POLAR>
-0.115272

>  <SCORE.SYSTEM.REPUL>
0.235339

>  <SCORE.SYSTEM.VDW>
-62.3788

>  <SCORE.SYSTEM.norm>
-2.08731

>  <SCORE.heavy>
29

>  <SCORE.norm>
-2.46299

$$$$
OHT.pdb
  rDOCK(R)          3D
libRbt.so/2013.1/901 2013/11/27
 30 32  0  0  0  0  0  0  0  0999 V2000
   66.1074   31.4896   69.2299 C   0  0  0  0  0  0
   67.3477   32.1400   69.7783 C   0  0  0  0  0  0
   67.1836   32.5579   71.2249 C   0  0  0  0  0  0
   66.4710   31.5466   72.0640 C   0  0  0  0  0  0
   65.1630   31.7932   72.5323 C   0  0  0  0  0  0
   64.4811   30.8280   73.2740 C   0  0  0  0  0  0
   65.0673   29.6132   73.5703 C   0  0  0  0  0  0
   66.3416   29.3567   73.1232 C   0  0  0  0  0  0
   67.0352   30.3158   72.3766 C   0  0  0  0  0  0
   67.6472   33.7491   71.7051 C   0  0  0  0  0  0
   68.1676   33.9443   73.1081 C   0  0  0  0  0  0
   69.5396   34.2527   73.3669 C   0  0  0  0  0  0
   70.0078   34.3772   74.6829 C   0  0  0  0  0  0
   69.1102   34.1950   75.7518 C   0  0  0  0  0  0
   69.5933   34.3013   77.0218 O   0  0  0  0  0  0
   67.7511   33.8928   75.5079 C   0  0  0  0  0  0
   67.3076   33.7726   74.1970 C   0  0  0  0  0  0
   67.6674   34.9711   70.8955 C   0  0  0  0  0  0
   66.8165   36.0403   71.1652 C   0  0  0  0  0  0
   66.8383   37.1965   70.4373 C   0  0  0  0  0  0
   67.7367   37.3258   69.3903 C   0  0  0  0  0  0
   67.8492   38.4592   68.6371 O   0  0  0  0  0  0
   68.7848   39.4676   69.0066 C   0  0  0  0  0  0
   70.1460   38.8282   68.9553 C   0  0  0  0  0  0
   70.8389   38.8430   70.2144 N   0  0  0  0  0  0
   70.2711   37.8767   71.1557 C   0  0  0  0  0  0
   72.2496   38.4989   70.0026 C   0  0  0  0  0  0
   68.6088   36.2658   69.0873 C   0  0  0  0  0  0
   68.5667   35.1199   69.8310 C   0  0  0  0  0  0
   69.9929   35.0998   77.3058 H   0  0  0  0  0  0
  1  2  1  0  0  0
  2  3  1  0  0  0
  3  4  1  0  0  0
  3 10  1  0  0  0
  4  5  2  0  0  0
  4  9  1  0  0  0
  5  6  1  0  0  0
  6  7  2  0  0  0
  7  8  1  0  0  0
  8  9  2  0  0  0
 10 11  1  0  0  0
 10 18  1  0  0  0
 11 12  2  0  0  0
 11 17  1  0  0  0
 12 13  1  0  0  0
 13 14  2  0  0  0
 14 15  1  0  0  0
 14 16  1  0  0  0
 15 30  1  0  0  0
 16 17  2  0  0  0
 18 19  2  0  0  0
 18 29  1  0  0  0
 19 20  1  0  0  0
 20 21  2  0  0  0
 21 22  1  0  0  0
 21 28  1  0  0  0
 22 23  1  0  0  0
 23 24  1  0  0  0
 24 25  1  0  0  0
 25 26  1  0  0  0
 25 27  1  0  0  0
 28 29  2  0  0  0
M  END
>  <CHROM.0>
57.24888979,-59.87059501,-105.04713488,43.46937331

>  <CHROM.1>
41.74548756,-109.34958167,-146.88592210,113.73247233,110.24004185,59.48340195
91.80576270,61.12728918,-119.84741471,73.55735663,68.01186195,34.60057134
71.74420435,2.22177192,0.91111511,2.12660045

>  <FORMUL>
      OHT    C26 H29 N1 O2

>  <HET>
 OHT  A 600      29

>  <HETNAM>
     OHT 4-HYDROXYTAMOXIFEN

>  <Name>
OHT.pdb

>  <RI>
0

>  <Rbt.Current_Directory>
/home/malgorzata/Desktop/rDOCK_IFD/Wyniki/5c_estrogen_receptor

>  <Rbt.Executable>
rbdock ($Id: //depot/dev/client3/rdock/2013.1/src/exe/rbdock.cxx#4 $)

>  <Rbt.Library>
libRbt.so (2013.1, Build901 2013/11/27)

>  <Rbt.Parameter_File>
/home/malgorzata/Desktop/rDock_2013.1_src/data/scripts/soft_docking.prm

>  <Rbt.Receptor>
cavity.prm

>  <SCORE>
-84.1493

>  <SCORE.INTER>
-23.8718

>  <SCORE.INTER.CONST>
1

>  <SCORE.INTER.POLAR>
-0.329632

>  <SCORE.INTER.REPUL>
0

>  <SCORE.INTER.ROT>
9

>  <SCORE.INTER.VDW>
-37.151

>  <SCORE.INTER.norm>
-0.823164

>  <SCORE.INTRA>
0.581186

>  <SCORE.INTRA.DIHEDRAL>
7.62231

>  <SCORE.INTRA.DIHEDRAL.0>
14.7815

>  <SCORE.INTRA.POLAR>
0

>  <SCORE.INTRA.POLAR.0>
0

>  <SCORE.INTRA.REPUL>
0

>  <SCORE.INTRA.REPUL.0>
0

>  <SCORE.INTRA.VDW>
-0.943275

>  <SCORE.INTRA.VDW.0>
-0.0652974

>  <SCORE.INTRA.norm>
0.0200409

>  <SCORE.RESTR>
0.765984

>  <SCORE.RESTR.CAVITY>
0.765984

>  <SCORE.RESTR.norm>
0.0264133

>  <SCORE.SYSTEM>
-61.6247

>  <SCORE.SYSTEM.CONST>
0

>  <SCORE.SYSTEM.DIHEDRAL>
3.19325

>  <SCORE.SYSTEM.POLAR>
-0.240498

>  <SCORE.SYSTEM.REPUL>
0.104963

>  <SCORE.SYSTEM.VDW>
-62.9285

>  <SCORE.SYSTEM.norm>
-2.12499

>  <SCORE.heavy>
29

>  <SCORE.norm>
-2.9017

$$$$
OHT.pdb
  rDOCK(R)          3D
libRbt.so/2013.1/901 2013/11/27
 30 32  0  0  0  0  0  0  0  0999 V2000
   69.2510   32.3526   70.8196 C   0  0  0  0  0  0
   68.0318   32.5097   71.6862 C   0  0  0  0  0  0
   67.3861   33.8703   71.5252 C   0  0  0  0  0  0
   66.2033   33.8685   70.6111 C   0  0  0  0  0  0
   66.0569   34.8639   69.6218 C   0  0  0  0  0  0
   64.9780   34.8325   68.7378 C   0  0  0  0  0  0
   64.0281   33.8326   68.8099 C   0  0  0  0  0  0
   64.1544   32.8555   69.7684 C   0  0  0  0  0  0
   65.2332   32.8749   70.6596 C   0  0  0  0  0  0
   67.8503   34.9863   72.1607 C   0  0  0  0  0  0
   68.2436   36.2570   71.4479 C   0  0  0  0  0  0
   69.5929   36.5103   71.0485 C   0  0  0  0  0  0
   69.9405   37.7222   70.4345 C   0  0  0  0  0  0
   68.9439   38.6915   70.2137 C   0  0  0  0  0  0
   69.3101   39.8692   69.6337 O   0  0  0  0  0  0
   67.6061   38.4507   70.6016 C   0  0  0  0  0  0
   67.2827   37.2442   71.2095 C   0  0  0  0  0  0
   68.0279   35.0490   73.6146 C   0  0  0  0  0  0
   69.2525   34.7641   74.2139 C   0  0  0  0  0  0
   69.4434   34.8413   75.5648 C   0  0  0  0  0  0
   68.3894   35.2183   76.3814 C   0  0  0  0  0  0
   68.5044   35.3557   77.7351 O   0  0  0  0  0  0
   69.5013   34.6234   78.4413 C   0  0  0  0  0  0
   69.0683   33.1824   78.4215 C   0  0  0  0  0  0
   69.2596   32.5046   79.6744 N   0  0  0  0  0  0
   68.2097   32.8409   80.6372 C   0  0  0  0  0  0
   69.2317   31.0537   79.4571 C   0  0  0  0  0  0
   67.1380   35.5105   75.8117 C   0  0  0  0  0  0
   66.9736   35.4255   74.4575 C   0  0  0  0  0  0
   68.6782   40.5514   69.5189 H   0  0  0  0  0  0
  1  2  1  0  0  0
  2  3  1  0  0  0
  3  4  1  0  0  0
  3 10  1  0  0  0
  4  5  2  0  0  0
  4  9  1  0  0  0
  5  6  1  0  0  0
  6  7  2  0  0  0
  7  8  1  0  0  0
  8  9  2  0  0  0
 10 11  1  0  0  0
 10 18  1  0  0  0
 11 12  2  0  0  0
 11 17  1  0  0  0
 12 13  1  0  0  0
 13 14  2  0  0  0
 14 15  1  0  0  0
 14 16  1  0  0  0
 15 30  1  0  0  0
 16 17  2  0  0  0
 18 19  2  0  0  0
 18 29  1  0  0  0
 19 20  1  0  0  0
 20 21  2  0  0  0
 21 22  1  0  0  0
 21 28  1  0  0  0
 22 23  1  0  0  0
 23 24  1  0  0  0
 24 25  1  0  0  0
 25 26  1  0  0  0
 25 27  1  0  0  0
 28 29  2  0  0  0
M  END
>  <CHROM.0>
-55.45566415,-60.80946211,-79.34487713,-62.24607407

>  <CHROM.1>
99.30803057,-134.05639559,124.38622250,-93.42026863,93.99009195,-176.52730823
-25.76605047,-70.63989103,-138.10451590,78.41950485,67.87598877,34.87847231
73.32573955,1.92691693,-0.96335580,-0.98903276

>  <FORMUL>
      OHT    C26 H29 N1 O2

>  <HET>
 OHT  A 600      29

>  <HETNAM>
     OHT 4-HYDROXYTAMOXIFEN

>  <Name>
OHT.pdb

>  <RI>
0

>  <Rbt.Current_Directory>
/home/malgorzata/Desktop/rDOCK_IFD/Wyniki/5c_estrogen_receptor

>  <Rbt.Executable>
rbdock ($Id: //depot/dev/client3/rdock/2013.1/src/exe/rbdock.cxx#4 $)

>  <Rbt.Library>
libRbt.so (2013.1, Build901 2013/11/27)

>  <Rbt.Parameter_File>
/home/malgorzata/Desktop/rDock_2013.1_src/data/scripts/soft_docking.prm

>  <Rbt.Receptor>
cavity.prm

>  <SCORE>
-81.339

>  <SCORE.INTER>
-18.8626

>  <SCORE.INTER.CONST>
1

>  <SCORE.INTER.POLAR>
-0.583818

>  <SCORE.INTER.REPUL>
0.0140595

>  <SCORE.INTER.ROT>
9

>  <SCORE.INTER.VDW>
-31.3479

>  <SCORE.INTER.norm>
-0.650433

>  <SCORE.INTRA>
-2.19771

>  <SCORE.INTRA.DIHEDRAL>
-1.23099

>  <SCORE.INTRA.DIHEDRAL.0>
14.7815

>  <SCORE.INTRA.POLAR>
0

>  <SCORE.INTRA.POLAR.0>
0

>  <SCORE.INTRA.REPUL>
0

>  <SCORE.INTRA.REPUL.0>
0

>  <SCORE.INTRA.VDW>
-1.95151

>  <SCORE.INTRA.VDW.0>
-0.0652974

>  <SCORE.INTRA.norm>
-0.0757831

>  <SCORE.RESTR>
0.0319127

>  <SCORE.RESTR.CAVITY>
0.0319127

>  <SCORE.RESTR.norm>
0.00110044

>  <SCORE.SYSTEM>
-60.3107

>  <SCORE.SYSTEM.CONST>
0

>  <SCORE.SYSTEM.DIHEDRAL>
4.68773

>  <SCORE.SYSTEM.POLAR>
-0.172063

>  <SCORE.SYSTEM.REPUL>
0.136858

>  <SCORE.SYSTEM.VDW>
-62.7538

>  <SCORE.SYSTEM.norm>
-2.07968

>  <SCORE.heavy>
29

>  <SCORE.norm>
-2.80479

$$$$
